version 2
run Net1-0-20200207-18:00:32-20722
attr configname Net1
attr datetime 20200207-18:00:32
attr experiment Net1
attr inifile omnetpp.ini
attr iterationvars ""
attr iterationvarsf ""
attr measurement ""
attr network Net
attr processid 20722
attr repetition 0
attr replication #0
attr resultdir results
attr runnumber 0
attr seedset 0
param **.gen.interArrivalTime1 exponential(0.21s)
param **.gen.interArrivalTime2 exponential(0.24s)
param **.gen.interArrivalTime3 exponential(0.25s)
param **.gen.interArrivalTime4 exponential(0.28s)
param **.gen.interArrivalTime5 exponential(0.27s)
param **.sys.serviceTime1 exponential(0.6s)
param **.sys.serviceTime2 exponential(0.3s)
param **.sys.serviceTime3 exponential(0.2s)
param **.sys.serviceTime4 exponential(0.4s)
param **.sys.serviceTime5 exponential(0.5s)
param **.sys.timeSlot 0.5s
param **.gen.numberofSchedulingClasses 5
param **.sys.numberofSchedulingClasses 5

vector 0 Net.sys busy:vector ETV
attr interpolationmode sample-hold
attr title "server busy state, vector"
vector 1 Net.sys qlen2:vector ETV
attr interpolationmode sample-hold
attr title "queue length, vector"
vector 2 Net.sys qlen4:vector ETV
attr interpolationmode sample-hold
attr title "queue length, vector"
vector 3 Net.sys queueingTime2:vector ETV
attr interpolationmode none
attr title "queueing time at dequeue, vector"
attr unit s
vector 4 Net.sys qlen3:vector ETV
attr interpolationmode sample-hold
attr title "queue length, vector"
vector 5 Net.sys qlen1:vector ETV
attr interpolationmode sample-hold
attr title "queue length, vector"
vector 6 Net.sys responseTime2:vector ETV
attr interpolationmode none
attr title "response time at end of service, vector"
attr unit s
vector 7 Net.sink lifetime:vector ETV
attr interpolationmode none
attr title "lifetime of arrived msg, vector"
attr unit s
vector 8 Net.sink arrivedMsg:vector ETV
attr interpolationmode none
attr title "number of arrived msg, vector"
vector 9 Net.sys queueingTime3:vector ETV
attr interpolationmode none
attr title "queueing time at dequeue, vector"
attr unit s
vector 10 Net.sys qlen0:vector ETV
attr interpolationmode sample-hold
attr title "queue length, vector"
vector 11 Net.sys responseTime3:vector ETV
attr interpolationmode none
attr title "response time at end of service, vector"
attr unit s
vector 12 Net.sys queueingTime4:vector ETV
attr interpolationmode none
attr title "queueing time at dequeue, vector"
attr unit s
vector 13 Net.sys responseTime4:vector ETV
attr interpolationmode none
attr title "response time at end of service, vector"
attr unit s
vector 14 Net.sys queueingTime0:vector ETV
attr interpolationmode none
attr title "queueing time at dequeue, vector"
attr unit s
vector 15 Net.sys responseTime0:vector ETV
attr interpolationmode none
attr title "response time at end of service, vector"
attr unit s
vector 16 Net.sys queueingTime1:vector ETV
attr interpolationmode none
attr title "queueing time at dequeue, vector"
attr unit s
vector 17 Net.sys responseTime1:vector ETV
attr interpolationmode none
attr title "response time at end of service, vector"
attr unit s
0	0	0	0
0	2	0	0
0	4	0.198968626141	0
0	6	0.423608723262	1
0	7	0.5	0
0	9	0.775269335515	0
0	22	1.988503213197	0
0	29	2.172655759065	0
0	55	4.036842677733	0
0	58	4.242876193677	1
0	59	4.288456706739	0
0	62	4.329307572888	0
0	64	4.50612767652	0
0	67	4.590460699965	0
0	69	4.719050178396	1
0	88	6.809464729813	0
0	127	9.194663259014	0
0	130	9.267673313503	0
0	132	9.272984512879	0
0	134	9.370927215548	1
0	135	9.451995460271	0
0	181	12.302937617676	0
0	184	12.483071294177	0
0	206	13.98155645714	0
0	220	14.761574756088	0
0	223	14.931536684881	0
0	253	16.31198958341	0
0	278	18.619989377328	0
0	298	19.974089580292	0
0	311	21.013259480296	0
0	314	21.319222006987	0
0	316	21.370545051084	0
0	586	38.625666439991	0
0	589	38.655532978733	0
0	592	39.640181769923	0
0	595	39.789490093598	1
0	596	39.952947232041	0
0	599	39.958693833715	0
0	610	41	0
0	612	41.134031057358	0
0	614	41.196990091558	0
0	616	41.200289396495	0
0	816	53.947802614127	0
0	836	56	0
0	838	56.135633592057	0
0	840	56.208612828282	0
0	1669	106.386874447196	0
0	1708	108.545008498772	0
0	1733	111.246143770206	0
0	1736	111.250023082345	1
0	1868	118.79380305045	0
0	1911	121.252936131445	0
0	2049	131.433316043161	0
0	2084	133.973647210601	0
0	2131	136.280136112311	0
0	2134	136.384663934688	1
0	2135	136.42542101113	0
0	2162	138.627220690873	0
0	2186	141	0
0	2188	141.361069287165	1
0	2189	141.435065123115	0
0	2242	143.955625646649	0
0	2262	146	0
0	2264	146.03900780258	0
0	2266	146.213362538401	0
0	2668	168.919679884839	0
0	2671	168.947311938036	0
0	2849	181.152407426429	0
0	2852	181.22959981528	0
0	2854	181.384383628661	0
0	2883	183.5	0
0	2885	183.600810528646	0
0	2887	183.678456636746	0
0	2889	183.992157179918	0
0	2923	186.270108012238	0
0	2970	188.876370499044	0
0	2973	188.916520352399	0
0	2975	188.954030586599	0
0	2977	188.954183500188	0
0	3029	191.309331352928	0
0	4418	278.739049792168	0
0	4470	281	0
0	4472	281.234399461115	0
0	4474	281.312613428811	1
0	4475	281.349713795536	0
0	4478	281.467858544157	1
0	4720	298.511046216914	0
0	4723	298.58751703832	0
0	4725	298.876078443382	0
0	4727	298.997170426114	1
0	4751	301.190782884675	0
0	4779	303.5	0
0	4781	303.856922164911	0
0	4783	303.867864951128	0
0	4785	303.948864332531	1
0	4813	306.150034417486	0
0	4816	306.241905405699	0
0	4818	306.298853858703	0
0	4848	308.593700990562	0
0	4851	308.654221222591	1
0	4852	308.76103332512	0
0	4855	308.922603047183	0
0	4857	308.922803868194	0
0	4955	316.165433750234	0
0	5002	318.880774434508	0
0	5005	318.902047290109	1
0	5006	318.914876248611	0
0	5009	318.94807070878	1
0	5033	321.210804507428	0
0	5062	323.66633717679	0
0	5065	323.684506277197	1
0	5068	323.785420151471	0
0	5101	326.028383158735	0
0	5104	326.033296639025	0
0	5106	326.056730191531	1
0	5107	326.087611966274	0
0	5110	326.110411306715	1
0	5493	351.492236779012	0
0	5524	353.846706508699	0
0	5588	358.756218986388	0
0	5627	361.289756263108	0
0	5630	361.335950178318	0
0	5632	361.452337247663	0
0	5678	363.778299961447	0
0	5681	363.912075102139	0
0	5700	366	0
0	5702	366.348494331308	0
0	5725	368.5	0
0	5727	368.885617676596	0
0	5729	368.92884660808	0
0	6038	388.921091990868	0
0	6081	391.33459090347	0
0	6122	393.66005709353	0
0	6125	393.929376188661	0
0	6159	396.157040726564	0
0	6162	396.326956934543	0
0	6164	396.327848935665	0
0	6166	396.472810137305	1
0	6167	396.497666064843	0
0	6197	398.5	0
0	6199	398.612957095799	1
0	6427	411.354363590161	0
0	6430	411.380593357884	0
0	6460	413.697640991924	0
0	6484	416	0
0	6486	416.057896036999	0
0	6488	416.22867027014	0
0	6543	421.31446635121	0
0	6572	423.983895961624	0
0	6604	426	0
0	6606	426.197140306208	1
0	6611	426.424496619307	0
0	6654	428.854235280987	0
0	6657	428.905361953045	0
0	6695	431.364574684482	0
0	6731	433.5	0
0	8755	561.471071967047	0
0	8773	563.5	0
0	8775	563.702811613547	0
0	8852	568.913488408764	0
0	8879	571.159932200846	0
0	8938	573.954888699184	0
0	8969	576.003540911938	0
0	8972	576.117342400585	0
0	8974	576.387938809046	0
0	9007	578.5	0
0	9009	578.534730912061	1
0	9012	578.686658000711	0
0	9015	578.690920100051	0
0	9017	578.723621486344	0
0	9055	581.134107331003	0
0	9058	581.18092495881	0
0	9060	581.286214278621	1
0	9061	581.328568471887	0
0	9064	581.444958564449	0
0	9090	583.544254104127	0
0	9093	583.603456814007	0
0	9095	583.872222132195	1
0	9121	586.298271386224	0
0	9154	588.641323031453	0
0	9157	588.970784534857	0
0	9181	591.088089953206	0
0	9184	591.101949491291	0
0	9186	591.498213346515	0
0	9206	593.818619436855	0
0	9209	593.899051805086	0
0	9211	593.958754257146	0
0	9249	596.238074183564	0
0	9252	596.276591412853	0
0	9254	596.430216689617	1
0	9255	596.464851746829	0
0	9376	603.788926584572	0
0	9379	603.896391504438	0
0	9419	606.471082934313	0
0	9445	608.5	0
0	9447	608.646109171769	0
0	9449	608.839429454938	0
0	9451	608.843339245606	1
0	9452	608.964692909393	0
0	9489	611.105366216588	0
0	9521	613.5	0
0	9523	613.536064393856	0
0	9525	613.546583878656	1
0	9526	613.643375828581	0
0	9529	613.881746648389	0
0	9531	613.953798400396	0
0	9684	623.875365546249	0
0	9731	626.484311530491	0
0	9754	628.642787163541	0
0	9793	631.325464672155	0
0	9796	631.429804209173	0
0	9832	633.558598401661	0
0	9835	633.963925377441	0
0	9837	633.986966904333	0
0	9862	636	0
0	9864	636.088380088921	0
0	9866	636.16517103002	0
0	9868	636.193147505395	1
0	9869	636.343220249414	0
0	9894	638.710272076429	0
0	9927	641.025916578936	0
0	9930	641.253211396062	0
0	9932	641.420284796647	0
0	9934	641.445348345028	0
0	9936	641.479627223398	0
0	9938	641.48717568019	0
0	9980	643.686494014446	0
0	10025	646.126440275358	0
0	10028	646.166234689675	0
0	10030	646.36862837556	0
0	10032	646.436002327276	1
0	10080	648.986586730142	0
0	10111	651.091682253331	0
0	10140	653.522184242219	0
0	10143	653.538432575013	1
0	10144	653.638176516739	0
0	10147	653.707072082532	0
0	10149	653.781283120829	0
0	10151	653.973763743853	0
0	10174	656	0
0	10176	656.019757936174	0
0	10178	656.325880515014	0
0	10272	663.529255591274	0
0	10275	663.607996013945	0
0	10277	663.665045977489	0
0	10279	663.802802116512	0
0	10313	666.105400618741	0
0	10316	666.271600036469	0
0	10318	666.322008895298	0
0	10366	668.567741018655	0
0	10369	668.730970156082	0
0	10371	668.923955516843	0
0	10677	691.067185660302	0
0	10680	691.129577449945	1
0	10681	691.163110573582	0
0	10715	693.5	0
0	10717	693.630807988781	1
0	10718	693.818074436454	0
0	10761	696.462122689987	0
0	10764	696.480419489736	1
0	10765	696.497638613184	0
0	10790	698.578198184733	0
0	10793	698.616027950561	1
0	10794	698.951941037264	0
0	10829	701.028359918217	0
0	10832	701.074788793576	0
0	10834	701.13732873393	0
0	10836	701.159944530156	0
0	10838	701.433032936612	1
0	10841	701.457396990284	0
0	10921	706.118837411989	0
0	10924	706.311496877634	0
0	10926	706.380995848688	0
0	10966	708.572150910553	0
0	11059	716.32210713109	0
0	11062	716.385497815974	1
0	11178	723.927305861039	0
0	11202	726	0
0	11204	726.18317355245	1
0	11205	726.238023551533	0
0	11208	726.261112379437	0
0	11210	726.478657136877	0
0	11252	728.807089539045	0
0	11255	728.830277798859	1
0	11473	741.401494070721	0
0	11476	741.44416667021	1
0	12284	793.847338803956	0
0	12287	793.849399086413	0
0	12289	793.912249309943	0
0	12320	796	0
0	12322	796.231401342392	0
0	12324	796.269002835009	0
0	12326	796.38551583046	0
0	12360	798.90192781338	0
0	12363	798.922891506499	1
0	12364	798.924991969922	0
0	12409	801.027681824349	0
0	12412	801.380445316557	0
0	12414	801.38111126856	0
0	12460	803.985600823337	0
0	12520	808.701340415737	0
0	12523	808.761438501842	0
0	12551	811.061885175972	0
0	12580	813.591098202095	0
0	12583	813.736741011246	0
0	12585	813.885816680843	0
0	12606	816	0
0	12608	816.042566134176	0
0	12610	816.055818241683	0
0	12612	816.197047794698	1
0	12613	816.40032079303	0
0	12616	816.465435957316	0
0	12646	818.607078169441	0
0	12649	818.849969477288	1
0	12689	821.130040997426	0
0	12692	821.232518961917	0
0	12694	821.347023893776	1
0	12695	821.469835568531	0
0	12738	823.551679959835	0
0	12741	823.861111333198	0
0	13281	856.483335929479	0
0	13359	861.336965760989	0
0	13362	861.403340157735	0
0	13473	866.423410491462	0
0	13476	866.463716260916	0
0	13541	871.363049053809	0
0	13559	873.5	0
0	13561	873.5229106014	1
0	13562	873.592581490353	0
0	13565	873.621508677834	0
0	13567	873.674068103867	0
0	13569	873.735683388452	1
0	13570	873.885784382136	0
0	13573	873.952004108296	0
0	13638	878.801644879537	0
0	13641	878.919552217612	0
0	13643	878.922977033445	0
0	13645	878.974029762581	0
0	13950	898.72136326945	0
0	13953	898.805237609805	1
0	13997	901.254613657259	0
0	14000	901.287194267824	1
0	14001	901.36400363526	0
0	14004	901.376070397829	0
0	14006	901.391866455774	0
0	14008	901.407988667789	0
0	14036	903.582839922412	0
0	14039	903.661068090942	1
0	14040	903.826324418583	0
0	14043	903.99027486176	0
0	14087	906.22255622165	0
0	14090	906.368795661766	0
0	14092	906.399343603238	1
0	14173	911.256243231851	0
0	14176	911.400885524272	0
0	14212	913.507877682328	0
0	14215	913.758867771855	1
0	14216	913.783780487123	0
0	14219	913.904811717673	0
0	14221	913.930576114541	0
0	14253	916.155568286142	0
0	14256	916.289517605441	0
0	14370	923.842632765823	0
0	14373	923.974019573193	0
0	14954	958.790933037138	0
0	14957	958.9749309176	1
0	14989	961.21001520216	0
0	14992	961.380595609628	0
0	14994	961.453546528683	0
0	15102	968.986006506315	0
0	16868	1078.545165785105	0
0	16871	1078.740437001549	0
0	16981	1086.104459633496	0
0	17349	1106.386855739188	0
0	17352	1106.485323472625	0
0	17354	1106.498007982075	1
0	17445	1111.428927379766	0
0	17475	1113.5	0
0	17477	1113.858944571789	0
0	17509	1116.239650305996	0
0	17512	1116.376430018664	1
0	17860	1138.90320289086	0
0	17863	1138.983228897114	1
0	17864	1138.984771414055	0
0	17918	1143.51600835737	0
0	17921	1143.803704391982	0
0	17923	1143.918287690203	0
0	17953	1146.033175549622	0
0	17956	1146.363292970004	0
0	17958	1146.422945572917	0
0	18125	1156.231691294014	0
0	18164	1158.784372219678	0
0	18267	1166.126896052893	0
0	18279	1168.5	0
0	18281	1168.947495816493	1
0	18315	1171.21818406161	0
0	18318	1171.45431832434	0
0	18354	1173.693760305457	0
0	18531	1186.119548994588	0
0	18534	1186.191601679553	0
0	18570	1188.630017379923	0
0	18573	1188.651404546388	0
0	18575	1188.670798476987	0
0	18765	1201.395502361952	0
0	18794	1203.522407754805	0
0	18797	1203.542842699984	1
0	18798	1203.663278643906	0
0	18801	1203.693811157568	0
0	18822	1206	0
0	18824	1206.232423717177	0
0	18826	1206.372672013805	0
0	18853	1208.5	0
0	18940	1213.693740851952	0
0	18943	1213.946005458766	1
0	19045	1221.413184110406	0
0	19082	1223.519707482438	0
0	19085	1223.640493461763	0
0	19087	1223.685487286954	0
0	19114	1226	0
0	19116	1226.089382253409	0
0	19118	1226.39789247803	0
0	19135	1228.5	0
0	19137	1228.575174505935	0
0	19139	1228.682582211891	0
0	19141	1228.842250482872	0
0	19143	1228.878793608703	0
0	19145	1228.93626718496	0
0	19165	1231.104893810739	0
0	19168	1231.189681178953	1
0	19169	1231.206838198699	0
0	19172	1231.412682670963	0
0	19206	1233.927037894627	0
0	19209	1233.941799190993	0
0	19244	1236	0
0	19246	1236.154453750944	0
0	19248	1236.165401737429	0
0	19273	1238.5	0
0	19275	1238.594289994972	0
0	19277	1238.757074930375	0
0	19279	1238.874764463404	0
0	19281	1238.901317734557	0
0	19344	1243.539207254304	0
0	19381	1246.047724259069	0
0	19384	1246.080429014743	1
0	19385	1246.148503475987	0
0	19664	1263.861765757363	0
0	19699	1266.472895241734	0
0	19824	1273.973525193775	0
0	19853	1276.206258573805	0
0	19856	1276.267019033544	0
0	19858	1276.365183646172	0
0	19892	1278.894874905591	0
0	19895	1278.979294290211	1
0	19925	1281.330962376606	0
0	19928	1281.382728435704	0
0	19962	1283.672536378478	0
0	19965	1283.813728732835	0
0	19991	1286.101877411997	0
0	20026	1288.625888691929	0
0	20029	1288.887995133023	0
0	20149	1296.264312961547	0
0	20152	1296.360290281403	0
0	20176	1298.71685976111	0
0	20248	1303.564620604788	0
0	20277	1306.446671933511	0
0	20280	1306.476220173022	0
0	21050	1353.86680537386	0
0	21085	1356.233677779895	0
0	21126	1358.629129118348	0
0	21206	1363.585976852279	0
0	21209	1363.830482731357	0
0	21242	1366	0
0	21244	1366.238118006967	0
0	21246	1366.424660953028	0
0	21261	1368.5	0
0	21263	1368.660348833573	1
0	21266	1368.940647838529	0
0	21269	1368.98177718006	0
0	21304	1371	0
0	21306	1371.230585530244	0
0	21397	1376.156677202697	0
0	21400	1376.207442883632	0
0	21402	1376.334202225277	1
0	22285	1431.187580206519	0
0	22288	1431.464779945673	0
0	22338	1433.746400486752	0
0	22341	1433.802638272493	1
0	22467	1441.487067676685	0
0	22498	1443.522757243873	0
0	22501	1443.577726644389	0
0	22503	1443.998598073665	0
0	22536	1446	0
0	22538	1446.076781339616	0
0	22540	1446.262983690089	0
0	22566	1448.542881889516	0
0	22569	1448.837138630073	0
0	22571	1448.858403371737	0
0	22816	1463.882389725908	0
0	22819	1463.883813881642	0
0	22847	1466.096384351892	0
0	22850	1466.301407754266	0
0	22852	1466.36187427348	0
0	22894	1468.625485172907	0
0	22897	1468.818579785514	0
0	22899	1468.930116928526	0
0	22901	1468.962380981389	0
0	22947	1471.129561253449	0
0	22950	1471.16953540989	0
0	22952	1471.216330850171	0
0	22984	1473.640020378827	0
0	22987	1473.849440408506	0
0	23016	1476	0
0	23018	1476.029547877889	0
0	23061	1478.5	0
0	23063	1478.541525691452	1
0	23064	1478.739234988739	0
0	23067	1478.747595557816	0
0	23069	1478.966367562183	0
0	23109	1481.296210845827	0
0	23142	1483.748533543664	0
0	23145	1483.795620600569	0
0	23189	1486.399944773713	0
0	23230	1488.77387494734	0
0	23256	1491	0
0	23258	1491.084585456327	1
0	23259	1491.133144190134	0
0	23286	1493.520387503376	0
0	23319	1496.404887669853	0
0	23374	1498.921255526604	0
0	23377	1498.987062802532	0
0	23413	1501.207612186482	0
0	23416	1501.301936036853	1
0	24257	1546.333463321668	0
0	24477	1561.241863801804	0
0	24518	1563.552303713023	0
0	24521	1563.563845178088	0
0	24523	1563.791491581714	0
0	24552	1566	0
0	24554	1566.076707367992	1
0	24555	1566.094713891033	0
0	24558	1566.115561353567	0
0	24560	1566.176650226419	0
0	24562	1566.340181015632	1
0	24563	1566.452911959204	0
0	24781	1581.483189172995	0
0	24833	1586.376635323965	0
0	24849	1588.5	0
0	24851	1588.670400642041	0
0	24853	1588.856242256794	0
0	24855	1588.861670684437	0
0	24857	1588.954645780801	0
0	24859	1588.959752785256	0
0	24901	1591.100179560855	0
0	24904	1591.151061563378	0
0	24906	1591.201144314831	0
0	24908	1591.476069028023	1
0	24950	1593.543596353351	0
0	24953	1593.737027038465	0
0	24955	1593.868138421265	0
0	24997	1596.312307735896	0
0	25000	1596.368235720651	0
0	25002	1596.491624152053	1
0	25044	1598.894171312614	0
0	25089	1601.30395823195	0
0	25092	1601.482794991112	0
0	25161	1606.362530315975	0
0	25198	1608.659989697309	0
0	25228	1611	0
0	25230	1611.09780797769	0
0	25232	1611.207815514956	0
0	25320	1618.65502718338	0
0	25367	1621.236055489941	0
0	25370	1621.365677132185	0
0	25394	1623.50353716313	0
0	25397	1623.590676256915	0
0	25399	1623.644096175196	1
0	25402	1623.717998182365	0
0	25405	1623.936762782983	0
0	25407	1623.96342363623	0
0	25443	1626.157883551523	0
0	25446	1626.327224809103	0
0	25448	1626.338317818837	0
0	25533	1631.086532553647	0
0	25536	1631.272952667436	0
0	25775	1646.208407454269	0
0	25778	1646.253764014161	0
0	25780	1646.325009381152	0
0	25805	1648.5	0
0	25807	1648.803616759005	0
0	25809	1648.879457490783	0
0	25811	1648.932410651355	0
0	25834	1651	0
0	25836	1651.419902217032	0
0	25838	1651.439701942092	0
0	25870	1653.520493214239	0
0	25873	1653.981256309805	1
0	25936	1658.956825312405	0
0	25939	1658.977303282308	0
0	25969	1661.298404080285	0
0	25972	1661.314079466852	0
0	26763	1711.274346297575	0
0	26766	1711.458029098857	0
0	26843	1716.154113170888	0
0	26846	1716.195483178825	0
0	26848	1716.23368383045	1
0	26849	1716.403948519845	0
0	26852	1716.485018437751	0
0	26890	1718.589933343438	0
0	27087	1731.302169338804	0
0	27110	1733.606020965018	0
0	27113	1733.668207260483	0
0	27115	1733.85024900502	1
0	27116	1733.945379570359	0
0	27196	1738.536939373532	0
0	27199	1738.586490486984	0
0	27201	1738.745602950599	1
0	27202	1738.789905736534	0
0	27272	1743.902840039155	0
0	27311	1746.15925002505	0
0	27314	1746.448143623995	0
0	27690	1768.994208414777	0
0	27719	1771.059238119544	0
0	27722	1771.179863117872	0
0	27864	1778.916703752768	0
0	27903	1781.301787808407	0
0	27906	1781.448781062503	0
0	27932	1783.553421646776	0
0	27935	1783.735179856717	0
0	27959	1786.121255664802	0
0	27962	1786.133953759521	0
0	28006	1788.770003850964	0
0	28009	1788.878091198553	1
0	28088	1793.925150382823	0
0	28091	1793.946844924042	0
0	28093	1793.995612563493	0
0	28127	1796.307775297657	0
0	28130	1796.436637470635	1
0	28156	1798.994819142338	0
0	28620	1828.879544783814	0
0	28656	1831	0
0	28658	1831.071823710057	0
0	28660	1831.278669917214	0
0	28662	1831.398516696066	0
0	28664	1831.427771656856	0
0	28745	1836.190166381718	0
0	28813	1841.061904764718	0
0	28816	1841.127692268482	0
0	28818	1841.133879904125	0
0	28820	1841.261489435273	0
0	28822	1841.264582807899	0
0	28824	1841.381196802168	0
0	28826	1841.392267274327	0
0	28828	1841.423090263077	0
0	28830	1841.493360166252	0
0	28872	1843.802425704942	0
0	28875	1843.916829915433	0
0	28877	1843.960692316972	0
0	28903	1846.115741968394	0
0	28906	1846.467081875593	0
0	28969	1851.076825377579	0
0	28972	1851.326624593897	0
0	28974	1851.388747108476	0
0	29090	1858.528313723906	0
0	29123	1861.263398488804	0
0	29126	1861.351168943767	1
0	29127	1861.357172692053	0
0	29554	1888.780780976015	0
0	29557	1888.899259310746	0
0	29578	1891	0
0	29580	1891.135918580448	0
0	29582	1891.192234969812	1
0	29587	1891.316928391721	0
0	29590	1891.405462793398	0
0	29614	1893.628954238795	0
0	30317	1936.34543980357	0
0	30344	1938.574053244777	0
0	30347	1938.789915411318	1
0	30379	1941.122834850787	0
0	30382	1941.172431596118	0
0	30408	1943.549477749567	0
0	30411	1943.803748749608	0
0	30413	1943.913343686377	0
0	30415	1943.958013338199	0
0	30446	1946	0
0	30448	1946.097728636438	0
0	30463	1948.5	0
0	30465	1948.631935720917	0
0	30467	1948.737146336686	0
0	30469	1948.750208979319	1
0	30470	1948.772362231925	0
0	30473	1948.806286052904	0
0	30475	1948.985480541992	0
0	30507	1951.25975577462	0
0	30510	1951.353177061953	1
0	30511	1951.429258381006	0
0	30514	1951.468574707376	0
0	30552	1953.700956657237	0
0	30555	1953.759968922147	0
0	30557	1953.804580851113	1
0	30558	1953.874223054997	0
0	30593	1956.050039132574	0
0	30596	1956.1549315996	1
0	30748	1963.788315155598	0
0	30751	1963.790614729439	0
0	30753	1963.809768803351	0
0	30784	1966	0
0	30786	1966.144554642048	0
0	30788	1966.210108825887	0
0	30790	1966.271227395564	0
0	30792	1966.301784161251	0
0	30925	1976.04476273003	0
0	30928	1976.070805784089	1
0	30933	1976.239556352259	0
0	30936	1976.266933456662	0
0	30970	1978.627678614405	0
0	30992	1981	0
0	30994	1981.253924434145	0
0	30996	1981.392567116638	0
0	30998	1981.479978973027	0
0	31033	1983.5	0
0	31120	1988.867734944388	0
0	31153	1991.377287458013	0
0	31156	1991.470428736753	0
0	31303	2001.20257266665	0
0	31306	2001.267848970355	1
0	31506	2013.96453438634	0
0	31542	2016	0
0	31544	2016.409268455322	0
0	31587	2018.5	0
0	31589	2018.601551901422	1
0	31592	2018.651615625751	0
0	31595	2018.79644854712	0
0	31623	2021.014818535654	0
0	31626	2021.461992504078	0
0	31676	2023.954607316271	0
0	31715	2026.161705949753	0
0	31718	2026.327898651848	1
0	31719	2026.396861400034	0
0	31762	2028.803707104609	0
0	31765	2028.942527264041	0
0	31844	2033.612025950418	0
0	31847	2033.795061313059	0
0	31877	2036.089008129032	0
0	31880	2036.208338234254	0
0	31918	2038.7190760295	0
0	31921	2038.756502154699	0
0	31955	2041.06398610423	0
0	32002	2043.733629954636	0
0	32005	2043.84002980616	0
0	32007	2043.949634673216	0
0	32009	2043.976693805262	0
0	32045	2046.232789291271	0
0	32048	2046.37400589703	1
0	32049	2046.431795273601	0
0	32052	2046.464005116759	0
0	32139	2051.345546785578	0
0	32142	2051.380807904908	0
0	32184	2053.928199939983	0
0	32219	2056.063358255166	0
0	32222	2056.143198556266	0
0	32224	2056.156479501411	0
0	32226	2056.166973576089	0
0	32228	2056.180546143176	0
0	32230	2056.473285294108	0
0	32264	2058.590874400309	0
0	32267	2058.635779403939	0
0	32297	2061.013003770048	0
0	32300	2061.028399816202	0
0	32302	2061.045993395646	0
0	32336	2063.979591019879	0
0	32371	2066.236183216024	0
0	32455	2071.396868612716	0
0	32496	2073.563406557835	0
0	32499	2073.805007645969	0
0	32531	2076.065980749613	0
0	32534	2076.119869265409	0
0	32576	2078.551739058724	0
0	32579	2078.722826621637	0
0	32611	2081.123106994689	0
0	32642	2083.587915278719	0
0	32990	2103.950937780222	0
0	33033	2106.320566507585	0
0	33068	2108.758290616406	0
0	33095	2111.436892603143	0
0	33261	2121.139123657082	0
0	33264	2121.22588037957	0
0	33304	2123.925271401897	0
0	33380	2128.604600245377	0
0	33383	2128.734816394368	0
0	33715	2151.307656173916	0
0	33768	2153.997863513359	0
0	33846	2158.74811076469	0
0	33849	2158.854312750102	0
0	33851	2158.862955317985	0
0	33853	2158.943222891574	0
0	33855	2158.992307573303	0
0	33893	2161.33369380543	0
0	33896	2161.34715988531	0
0	33898	2161.424305355442	1
0	33899	2161.468284963471	0
0	33975	2166.170251145633	0
0	33978	2166.37327043103	0
0	33980	2166.498313647417	0
0	34010	2168.683843720095	0
0	34013	2168.74722312445	1
0	34014	2168.793196785659	0
0	34017	2168.893578344299	0
0	34042	2171	0
0	34044	2171.344238076983	0
0	34984	2228.971698450274	0
0	35017	2231.077115482806	0
0	35020	2231.413038965309	0
0	35022	2231.474891232885	0
0	35052	2233.931835911202	0
0	35132	2238.969214704466	0
0	35252	2248.776199628547	0
0	35255	2248.861684943977	0
0	35644	2273.764945446263	0
0	35853	2286.415241152363	0
0	35904	2288.621576892081	0
0	35907	2288.655119139844	0
0	35909	2288.821496111338	1
0	35974	2293.648620824929	0
0	36008	2296	0
0	36010	2296.046451270243	0
0	36012	2296.397083302342	0
0	36043	2298.5	0
0	36045	2298.683964058552	0
0	36047	2298.687284232325	0
0	36049	2298.924308737116	0
0	36077	2301.023640242197	0
0	36080	2301.228530604336	1
0	36208	2308.809424949418	0
0	36237	2311.115542193432	0
0	36240	2311.13864600109	1
0	36243	2311.293919173064	0
0	36246	2311.47741529832	1
0	36266	2313.761009064598	0
0	36317	2316.302319909676	0
0	36360	2318.764682659649	0
0	36394	2321	0
0	36396	2321.04907707242	0
0	36398	2321.257539052143	0
0	36400	2321.499659802676	0
0	36450	2323.740350651284	0
0	36453	2323.987499222361	0
0	37088	2363.807456325994	0
0	37127	2366.314551645141	0
0	37130	2366.426509207992	0
0	37132	2366.488019407455	0
0	37175	2368.5	0
0	37256	2373.693239344871	0
0	37259	2373.886431085813	0
0	37261	2373.950031478051	0
0	38372	2443.885644028085	0
0	38375	2443.912435422585	1
0	38411	2446.156325697823	0
0	38414	2446.476954102607	0
0	38442	2448.566788223346	0
0	38622	2458.982459923247	0
0	38656	2461	0
0	38658	2461.109391421494	0
0	38660	2461.265730238779	1
0	38663	2461.361274736523	0
0	38666	2461.364426012695	0
0	38668	2461.463317178845	0
0	38704	2463.59386550695	0
0	38707	2463.739022937256	1
0	38708	2463.862567638464	0
0	38711	2463.987277747896	0
0	38749	2466.116038646787	0
0	38752	2466.190581669636	1
0	38753	2466.280358430754	0
0	38756	2466.304656202198	0
0	38795	2468.5	0
0	38797	2468.546838344531	1
0	38802	2468.753782783628	0
0	38823	2471.002971987298	0
0	38826	2471.011390006812	0
0	38828	2471.020116704606	1
0	38831	2471.184695529438	0
0	38834	2471.348626525817	0
0	38862	2473.523138252602	0
0	38865	2473.70443795157	0
0	38867	2473.962243923171	0
0	38869	2473.9738378609	0
0	38871	2473.983237660829	0
0	38897	2476.072674182502	0
0	38900	2476.106889305941	0
0	38902	2476.38924568804	0
0	38904	2476.400805639505	1
0	38944	2478.822795749896	0
0	38987	2481.010625892075	0
0	39010	2483.726622454446	0
0	39045	2486.053507365561	0
0	39048	2486.457687437367	0
0	39081	2488.5	0
0	39083	2488.777386753107	0
0	39085	2488.818504184743	0
0	39109	2491.101806925709	0
0	39112	2491.385656187608	1
0	39136	2493.524867698431	0
0	39139	2493.640560994646	0
0	39141	2493.647208694457	1
0	39146	2493.966284019589	0
0	39181	2496.186490399019	0
0	39184	2496.243622196671	0
0	39186	2496.24749589507	0
0	39220	2498.653647432721	0
0	39255	2501.02514765911	0
0	39258	2501.042516432495	1
0	39259	2501.082760888227	0
0	39262	2501.09227990328	0
0	39264	2501.160103434085	0
0	39266	2501.420205394821	0
0	39394	2508.901988041685	0
0	39548	2518.71791558039	0
0	39576	2521	0
0	39578	2521.173851878862	0
0	39580	2521.18628370872	0
0	39582	2521.20776969072	1
0	39583	2521.380773337559	0
0	39983	2546.11578221881	0
0	40019	2548.5	0
0	40021	2548.685597636609	0
0	40023	2548.698872402224	0
0	40025	2548.786917117802	0
0	40079	2551.385331193538	0
0	40097	2553.5	0
0	40099	2553.850960428861	0
0	40101	2553.916114750226	0
0	40141	2556.14391767078	0
0	40167	2558.5	0
0	40169	2558.505451517714	0
0	40215	2561.310295811743	0
0	40218	2561.375437351506	1
0	40254	2563.975716689624	0
0	40332	2568.864600778373	0
0	40379	2571.447077729815	0
0	40403	2573.5	0
0	40422	2576	0
0	40424	2576.333408026414	0
0	40452	2578.640366176831	0
0	40455	2578.756431220471	0
0	40457	2578.827172379615	0
0	40478	2581	0
0	40480	2581.282460462462	0
0	40503	2583.5	0
0	40505	2583.628371391486	1
0	40510	2583.773812849932	0
0	40513	2583.921572849766	0
0	40556	2586	0
0	40558	2586.411439593711	0
0	40560	2586.428080211285	0
0	40562	2586.443794433116	0
0	40564	2586.497598158925	0
0	40589	2588.5	0
0	40591	2588.71777126673	0
0	40611	2591.281110628605	0
0	40614	2591.333632298741	0
0	40646	2593.602221925467	0
0	40649	2593.75896280788	0
0	40677	2596.240213292397	0
0	40720	2598.956673567109	0
0	40759	2601.293621419175	0
0	40762	2601.412276137495	0
0	40798	2603.697252445266	0
0	40801	2603.842224417706	0
0	40831	2606.088099132722	0
0	40834	2606.26236680349	0
0	40913	2611.407180384056	0
0	41004	2618.79297155878	0
0	41007	2618.861436620535	0
0	41047	2621.102565570461	0
0	41050	2621.437815718253	0
0	41052	2621.496049038219	1
0	41213	2631.311534193589	0
0	41216	2631.404596346606	1
0	41246	2633.646900836938	0
0	41249	2633.856007056073	0
0	41251	2633.876779873441	0
0	41270	2636	0
0	41272	2636.021270001703	0
0	41351	2641.101887177685	0
0	41354	2641.319161022719	0
0	41356	2641.393231239694	1
0	41359	2641.460759752176	0
0	41400	2643.54534155502	0
0	41403	2643.665718861195	0
0	41544	2653.821722441804	0
0	41618	2658.62724888627	0
0	41621	2658.649620362372	0
0	41657	2661.221960446446	0
0	41784	2668.849214791665	0
0	41787	2668.877288322793	1
0	41788	2668.917697721739	0
0	41812	2671	0
0	41814	2671.071585819566	0
0	41816	2671.351155862015	0
0	41818	2671.363081038808	1
0	41983	2681.379960135398	0
0	42017	2683.5	0
0	42019	2683.759442917149	0
0	42021	2683.802438411005	1
0	42022	2683.833324479835	0
0	42025	2683.947265940534	0
0	42139	2691.400204267794	0
0	42142	2691.494708483689	0
0	42174	2693.722501841216	0
0	42332	2703.782244808383	0
0	42335	2703.915769519274	1
0	42361	2706.356328616932	0
0	42527	2716.355795350742	0
0	42530	2716.455835485507	1
0	42564	2718.772035938337	0
0	42567	2718.997786171676	1
0	42599	2721.170697563399	0
0	42686	2728.749408783107	0
0	42689	2728.791385506353	0
0	42752	2733.798241819372	0
0	42755	2733.807203301851	0
0	42778	2736	0
0	42780	2736.379166225339	0
0	42824	2738.62958984266	0
0	42827	2738.663033735274	1
0	42830	2738.945675843705	0
0	42881	2741.232592966752	0
0	42884	2741.351449775113	0
0	42909	2743.5	0
0	42911	2743.527792453933	1
0	42914	2743.768960138434	0
0	42917	2743.962160519362	0
0	42919	2743.992830166968	0
0	42950	2746	0
0	42952	2746.22567088804	0
0	42954	2746.277826408832	0
0	42956	2746.28025910973	0
0	43236	2763.82488443034	0
0	43239	2763.998150260855	1
0	43317	2771.262382556424	0
0	43320	2771.400341418723	0
0	43322	2771.425984212979	1
0	43440	2778.968398779449	0
0	43472	2781	0
0	43474	2781.090405434967	0
0	43476	2781.15882041299	1
0	43477	2781.248478163937	0
0	43480	2781.275732784985	1
0	43481	2781.282525732617	0
0	43505	2783.5	0
0	43507	2783.571330436053	0
0	43509	2783.781727274013	0
0	43511	2783.796411707634	0
0	43513	2783.847578610927	1
0	43514	2783.891638874043	0
0	43543	2786.266214791743	0
0	43546	2786.404515483157	0
0	43729	2796.3157540931	0
0	43761	2798.5	0
0	43763	2798.86633715772	1
0	43764	2798.93075784385	0
0	43803	2801.346132734657	0
0	43836	2803.522032709832	0
0	43839	2803.768913767935	1
0	43840	2803.775778259901	0
0	43922	2808.757172441198	0
0	43943	2811.030717491414	0
0	43984	2813.716101055593	0
0	43987	2813.762187417455	1
0	44015	2816.090737593044	0
0	44048	2818.695383589468	0
0	44051	2818.720434099835	0
0	44157	2826.166343420935	0
0	44160	2826.436595949877	0
0	44194	2828.956918684266	0
0	44949	2871.496708653883	0
0	44952	2871.499394293073	0
0	44978	2873.52450937414	0
0	45175	2886.375546533493	0
0	45178	2886.452397440578	0
0	45220	2888.726466938203	0
0	45223	2888.914991203365	0
0	45225	2888.926905716497	0
0	45261	2891.368137799223	0
0	45264	2891.490777136028	1
0	45569	2911.374362329233	0
0	45603	2913.5	0
0	45605	2913.544823927023	1
0	45612	2913.990695001597	0
0	45651	2916.188702476906	0
0	45654	2916.310161746341	0
0	45656	2916.491896933735	0
0	45690	2918.666212563879	0
0	45741	2921.324497169106	0
0	45780	2923.99340157585	0
0	45836	2928.538123609542	0
0	45839	2928.853680032581	0
0	45841	2928.923451711599	0
0	45843	2928.943511769686	1
0	46172	2948.980860457253	0
0	46194	2951	0
0	46196	2951.029641934259	0
0	46198	2951.053876196053	0
0	46200	2951.407079212379	0
0	46229	2953.5	0
0	46231	2953.73598553545	0
0	46275	2956.489078947407	0
0	46304	2958.586888255885	0
0	46307	2958.614291340892	0
0	46309	2958.735884668292	0
0	46340	2961	0
0	46342	2961.122231295452	0
0	46390	2963.513046219942	0
0	46393	2963.742777251547	0
0	46395	2963.806290292973	0
0	47002	3003.936276999339	0
0	47040	3006	0
0	47042	3006.410725331583	0
0	47044	3006.498139596626	1
0	47080	3008.764701159693	0
0	47083	3008.82669338806	0
0	47121	3011.224210606575	0
0	47148	3013.637855270665	0
0	47151	3013.769362987762	0
0	47195	3016.387870795705	0
0	47229	3018.5	0
0	47277	3021.415494715305	0
0	47280	3021.452953344992	0
0	47320	3023.845718691394	0
0	47323	3023.851419083924	0
0	47325	3023.852711502961	0
0	47347	3026.171375107768	0
0	47350	3026.31831463774	1
0	47351	3026.422262127558	0
0	47374	3028.51249893214	0
0	47377	3028.547533415513	0
0	47379	3028.640087745241	0
0	47381	3028.930404601319	0
0	47409	3031.364463729395	0
0	47412	3031.469438367942	0
0	47443	3033.5	0
0	47445	3033.97143802968	0
0	47501	3036.373984401205	0
0	47550	3038.81602943017	0
0	47574	3041	0
0	47576	3041.253533706184	0
0	47578	3041.299624241491	1
0	47579	3041.379878919321	0
0	47582	3041.386311302479	0
0	47584	3041.427418272468	0
0	47586	3041.440647008715	1
0	47634	3043.860657428307	0
0	47681	3046.418283625952	0
0	47816	3053.935908990668	0
0	47919	3061.048084157244	0
0	47922	3061.167706239499	1
0	47925	3061.383425306581	0
0	47928	3061.481825491905	0
0	47972	3063.713336527177	0
0	47975	3063.933857058367	0
0	47977	3063.95803681802	0
0	48007	3066.276646690086	0
0	48010	3066.358141461822	0
0	48037	3068.5	0
0	48039	3068.852754231614	0
0	48344	3088.866256853354	0
0	48347	3088.9894792406	0
0	48545	3101.478582478483	0
0	48848	3118.645934363426	0
0	48851	3118.698338365566	1
0	48852	3118.881150213315	0
0	49961	3186.118161149253	0
0	49964	3186.21475706782	0
0	50000	3188.763663058182	0
0	50119	3196.211242707687	0
0	50122	3196.331835666349	0
0	50164	3198.89602478438	0
0	50193	3201.035347330901	0
0	50196	3201.199167504201	0
0	50198	3201.233664830997	0
0	50460	3218.907621645656	0
0	50501	3221.101118811604	0
0	50504	3221.483290835608	0
0	50506	3221.49901083318	0
0	50542	3223.932071425623	0
0	50583	3226.147597876598	0
0	50586	3226.15611918008	0
0	50588	3226.329046103125	0
0	50590	3226.451552187655	0
0	50671	3231.403166131837	0
0	50674	3231.423704747762	0
0	50676	3231.459628801383	0
0	50678	3231.481865304322	0
0	50716	3233.773672657256	0
0	50719	3233.870028048345	0
0	50748	3236	0
0	50750	3236.245952461501	0
0	50752	3236.385492707175	0
0	50798	3238.658824271902	0
0	50801	3238.846926579489	1
0	51234	3268.929738679289	0
0	51271	3271.200853517589	0
0	51355	3276.154184119474	0
0	51396	3278.775188443206	0
0	51425	3281.118982632427	0
0	51428	3281.279857818046	0
0	51430	3281.492844699453	0
0	51474	3283.646590955964	0
0	51548	3288.724531224025	0
0	51551	3288.971513519391	0
0	51606	3293.515190592127	0
0	51609	3293.562674358423	0
0	51611	3293.907880151264	1
0	51853	3306.354987526528	0
0	51890	3308.688726900114	0
0	51893	3308.914948872162	0
0	51895	3308.987714351891	0
0	51922	3311	0
0	51924	3311.035449763051	0
0	51926	3311.09888320076	0
0	51928	3311.364870817356	0
0	51930	3311.499929143768	0
0	51967	3313.5	0
0	51969	3313.626928599772	0
0	51971	3313.688350199068	1
0	51978	3313.950864098406	0
0	51981	3313.970626534425	1
0	52025	3316.351388403149	0
0	52070	3318.764505063624	0
0	52073	3318.920853730682	0
0	52075	3318.991362136598	0
0	52107	3321.090355262915	0
0	52110	3321.13034823936	0
0	52112	3321.179701733932	0
0	52114	3321.458815097655	1
0	52115	3321.467177750408	0
0	52157	3323.5	0
0	52159	3323.507037559603	0
0	52186	3326	0
0	52188	3326.031838201081	0
0	52190	3326.232983753351	0
0	52192	3326.48483952871	0
0	52230	3328.628611829515	0
0	52233	3328.807065175112	0
0	52235	3328.964219248867	1
0	52236	3328.983666431944	0
0	52301	3331.252671230656	0
0	52304	3331.351801927559	0
0	52306	3331.480844830914	0
0	52341	3333.5	0
0	52343	3333.586675023384	0
0	52688	3353.850526679887	0
0	52768	3358.815877927718	0
0	52796	3361	0
0	52798	3361.04885015588	0
0	52800	3361.310304400312	0
0	52838	3363.51969879795	0
0	52841	3363.77837926586	0
0	52843	3363.877882292284	0
0	52938	3368.79889971577	0
0	52941	3368.813779036617	0
0	52966	3371	0
0	52968	3371.160008191308	0
0	53126	3383.660400170189	0
0	53129	3383.696777443084	1
0	53130	3383.700241134006	0
0	53133	3383.837679324308	0
0	53135	3383.939848216165	0
0	53644	3413.959777237962	0
0	53666	3416	0
0	53668	3416.07871395408	0
0	53670	3416.181544205959	0
0	53672	3416.216729560261	0
0	53674	3416.330900653437	0
0	53676	3416.435857337719	0
0	53714	3418.995312073817	0
0	53743	3421.239924795958	0
0	53746	3421.382009699363	0
0	53748	3421.491211813234	0
0	53825	3426.231232941098	0
0	53828	3426.379068968761	0
0	53830	3426.469588606573	0
0	53878	3428.967150256186	0
0	53919	3431.378081588132	0
0	53948	3433.581458781328	0
0	53983	3436.057366531716	0
0	53986	3436.251089504538	0
0	54012	3438.792106110338	0
0	54045	3441.393741944533	0
0	54098	3443.62269357792	0
0	54101	3443.825944308849	1
0	54102	3443.846016599337	0
0	54105	3443.947940534645	0
0	54124	3446	0
0	54126	3446.10744027715	0
0	54128	3446.448176611667	0
0	54168	3448.722184800523	0
0	54171	3448.79209550054	0
0	54173	3448.857025277705	1
0	54176	3448.925114103387	0
0	54297	3456.050816334197	0
0	54300	3456.366326008556	0
0	54340	3458.83853556818	0
0	54373	3461.007248086361	0
0	54394	3463.563094311146	0
0	54397	3463.592372425756	0
0	54399	3463.688616351146	0
0	54401	3463.782581123697	0
0	54433	3466.057282886023	0
0	54436	3466.411827831188	0
0	54438	3466.464577509366	0
0	54844	3493.748797925316	0
0	54847	3493.855678135423	0
0	54881	3496.155580094665	0
0	54884	3496.254000411352	0
0	54908	3498.551649075604	0
0	54911	3498.686733108307	0
0	54913	3498.86326875219	0
0	54937	3501.192226055963	0
0	54940	3501.23257055486	0
0	54942	3501.327987272712	0
0	54974	3503.687321155598	0
0	54977	3503.968160970492	0
0	55062	3508.872733462147	0
0	55065	3508.903768929394	0
0	55067	3508.930770637404	0
0	55107	3511.246689226128	0
0	55136	3513.861996316666	0
0	55139	3513.938871201385	0
0	55163	3516.397358346946	0
0	55210	3518.95791802943	0
0	55255	3521.280610772142	0
1	2	0	1
1	4	0.198968626141	2
1	10	1	1
1	15	1.390309067177	0
1	26	2.057150788211	2
1	39	2.857048350125	3
1	46	3.487629073279	4
1	47	3.5	3
1	50	3.66788657058	2
1	53	3.790783877608	3
1	62	4.329307572888	5
1	72	5.219546724159	6
1	74	5.257354437575	7
1	78	6	6
1	79	6.128341834536	5
1	81	6.449389745948	4
1	87	6.780719632513	6
1	103	7.701698987337	7
1	111	8.5	6
1	112	8.628338940406	5
1	118	8.689795010837	4
1	120	8.956853047762	3
1	132	9.272984512879	5
1	160	11	4
1	161	11.020912245155	3
1	163	11.033335303248	2
1	178	12.135810621729	4
1	199	13.5	3
1	200	13.521527021631	2
1	202	13.733092304301	1
1	204	13.779952608056	0
1	215	14.554277386386	1
1	234	15.384126702062	2
1	241	15.813393848981	3
1	246	16	2
1	247	16.092002791548	1
1	251	16.309256667724	0
1	262	17.18129484386	1
1	277	18.5	0
1	286	19.275931212251	1
1	310	21	0
1	330	22.448565192834	1
1	344	23.345774587041	2
1	345	23.5	1
1	350	23.8694655302	0
1	382	25.179165087424	2
1	389	25.802194140483	3
1	391	25.944170178853	4
1	392	26	3
1	394	26.01567542198	4
1	396	26.230273663937	5
1	397	26.282204881859	4
1	400	26.356359615584	5
1	401	26.461523056016	4
1	419	28.5	4
1	420	28.524705329472	3
1	422	28.595309356127	2
1	426	28.88667306784	1
1	428	28.992817567163	0
1	451	30.888517432954	2
1	452	31	1
1	454	31.078984375778	2
1	467	31.963320877003	4
1	469	31.96816582234	5
1	476	32.385984598925	6
1	500	33.49770788882	7
1	501	33.5	6
1	502	33.660510397152	5
1	508	33.831326344281	4
1	544	36	4
1	547	36.086869131189	3
1	549	36.213561654734	2
1	581	38.5	2
1	582	38.604574006018	1
1	584	38.611331363128	0
1	637	42.731599472289	1
1	652	43.218688138023	2
1	653	43.5	1
1	662	44.464218611854	3
1	671	44.859330315812	4
1	678	46	3
1	679	46.062193560994	2
1	681	46.252559502502	1
1	683	46.479878801553	0
1	686	46.497768728392	1
1	703	47.75600787943	3
1	717	48.5	2
1	764	51	2
1	767	51.186812066521	1
1	769	51.437652720539	0
1	775	51.597566244696	2
1	777	51.74977447313	3
1	805	53.5	2
1	807	53.661978645919	3
1	810	53.698300858579	2
1	812	53.773053517342	1
1	814	53.836968448317	0
1	847	56.751823634775	1
1	849	56.811804514634	2
1	863	57.647803299533	3
1	867	57.975546391573	4
1	879	58.5	3
1	882	58.898807840255	2
1	884	58.92381435824	1
1	890	59.154360191771	3
1	921	60.65366646453	4
1	924	61	3
1	927	61.274868602884	2
1	929	61.294302138557	1
1	970	63.445998135396	3
1	971	63.5	2
1	980	64.22651120697	4
1	989	64.58001214034	5
1	991	64.967265060129	6
1	1003	65.839015273862	7
1	1004	66	6
1	1037	68.5	6
1	1042	68.896549780921	5
1	1078	71	5
1	1081	71.020593672744	4
1	1087	71.416971740966	3
1	1113	73.5	3
1	1114	73.528425102279	2
1	1116	73.607125584504	1
1	1118	73.618107059014	0
1	1137	74.73062304835	2
1	1141	74.825281117285	3
1	1156	76	2
1	1160	76.200194765667	3
1	1161	76.394011513118	2
1	1163	76.414318329906	1
1	1165	76.477350335649	0
1	1169	76.524806174568	2
1	1177	76.824270352682	3
1	1194	78.04773984665	4
1	1198	78.189782467586	5
1	1203	78.5	4
1	1210	78.810749100406	3
1	1213	78.890513413954	4
1	1242	80.361090830511	6
1	1250	81	5
1	1252	81.015222516387	6
1	1257	81.321683569817	5
1	1261	81.467992637644	4
1	1272	82.128764062527	6
1	1290	83.142050931825	7
1	1294	83.427999776605	8
1	1295	83.5	7
1	1297	83.509292494227	8
1	1302	83.654968475901	7
1	1304	83.686770879261	6
1	1309	83.842526416201	7
1	1321	84.589234202188	9
1	1338	86	8
1	1339	86.111131782632	7
1	1343	86.345384521621	6
1	1367	87.500142052735	8
1	1379	88.5	7
1	1380	88.889995382369	6
1	1400	91	6
1	1401	91.017766476531	5
1	1403	91.052497789173	4
1	1405	91.07234209447	3
1	1407	91.270597995622	2
1	1413	91.471408230398	1
1	1415	91.484361368956	0
1	1435	92.793390397905	2
1	1451	93.5	1
1	1452	93.653692515478	0
1	1458	94.046018748561	2
1	1488	95.415097246062	3
1	1493	95.595008470484	4
1	1508	96	3
1	1509	96.028095143391	2
1	1512	96.090971544636	3
1	1515	96.122488760945	2
1	1517	96.147031762408	1
1	1525	96.516739314188	3
1	1551	98.5	2
1	1552	98.805787774142	1
1	1588	101	1
1	1590	101.234956216563	2
1	1591	101.268055192396	1
1	1595	101.386586675983	0
1	1612	102.190516982963	2
1	1625	103.5	1
1	1626	103.970666953615	0
1	1648	105.142564749894	2
1	1652	105.499189852197	3
1	1661	105.969523567551	4
1	1662	106	3
1	1663	106.199459784833	2
1	1665	106.263070693871	1
1	1667	106.291571283001	0
1	1682	107.015641491399	1
1	1707	108.5	0
1	1722	110.04740848892	1
1	1732	111	0
1	1740	111.420893529618	1
1	1741	111.496959057556	0
1	1751	111.979613183046	2
1	1776	113.381042704991	3
1	1779	113.5	2
1	1780	113.559870600588	1
1	1802	115.094389728379	3
1	1809	115.778883038581	4
1	1816	116	3
1	1821	116.14887565228	2
1	1823	116.345381320824	1
1	1827	116.426526589597	0
1	1856	118.004972888433	2
1	1863	118.5	1
1	1866	118.747939616123	0
1	1879	119.733405906588	1
1	1895	120.669292734324	2
1	1906	121	1
1	1909	121.16331853777	0
1	1917	121.82340829107	1
1	1932	122.368143097943	2
1	1944	123.282600214581	3
1	1949	123.5	2
1	1951	123.585008588107	3
1	1952	123.7229222006	2
1	1982	126	2
1	1983	126.231094945749	1
1	1985	126.373686241575	0
1	1988	126.387867644465	1
1	1990	126.489470861152	2
1	2008	128.474645063487	4
1	2013	128.5	3
1	2018	128.850689623655	2
1	2024	129.357006774828	4
1	2040	131	3
1	2043	131.095399550189	2
1	2045	131.251633308187	1
1	2047	131.407540313953	0
1	2062	132.419116952886	1
1	2081	133.5	0
1	2093	134.611149051411	1
1	2108	135.228667678531	2
1	2110	135.474227224633	3
1	2112	135.494119763406	4
1	2120	136	3
1	2121	136.008084315531	2
1	2123	136.121971538305	1
1	2125	136.134334768035	0
1	2142	137.140172679647	1
1	2161	138.5	0
1	2212	142.447357697215	1
1	2226	143.087251466232	2
1	2233	143.5	1
1	2236	143.844878377094	0
1	2239	143.906511065951	1
1	2240	143.947967887095	0
1	2271	146.980221297353	1
1	2278	147.185141987271	2
1	2282	147.24010513969	3
1	2309	148.5	2
1	2310	148.522634666478	1
1	2314	148.697762426096	0
1	2331	150.636814495544	2
1	2340	151	1
1	2345	151.230994906714	0
1	2366	152.112538596252	2
1	2377	152.791800969584	3
1	2388	153.258528282582	4
1	2391	153.5	3
1	2392	153.610227589663	2
1	2394	153.631290473503	1
1	2404	154.31200604888	3
1	2408	154.46524786605	4
1	2413	154.549292443417	5
1	2424	155.127736074878	6
1	2435	155.637930782468	7
1	2442	156	6
1	2444	156.132213138888	7
1	2445	156.345651874594	6
1	2465	157.671314180432	8
1	2487	158.5	7
1	2488	158.71912997405	6
1	2491	158.735933589774	7
1	2494	158.920584511728	6
1	2514	161	6
1	2519	161.318240452669	5
1	2521	161.360524687665	4
1	2523	161.448295523073	3
1	2525	161.452157144112	2
1	2543	162.986600146553	4
1	2550	163.179257911753	5
1	2558	163.210945205207	6
1	2571	163.5	5
1	2572	163.535376141224	4
1	2574	163.546712917456	3
1	2578	163.710764715978	2
1	2584	164.280386904756	4
1	2596	165.00817997403	5
1	2609	165.548422060454	6
1	2618	166	5
1	2623	166.452080089475	4
1	2653	168.5	4
1	2658	168.56046562761	3
1	2660	168.605223382037	2
1	2664	168.834200671931	1
1	2666	168.89916403286	0
1	2682	169.398209310241	1
1	2684	169.410193610137	2
1	2687	169.630323219714	3
1	2689	169.973753035886	4
1	2708	171	3
1	2709	171.187601623122	2
1	2730	172.492153135874	4
1	2736	173.181793466603	5
1	2746	173.464933294536	6
1	2747	173.5	5
1	2751	173.643342399318	6
1	2758	174.498921411322	8
1	2774	176	7
1	2775	176.103605811424	6
1	2777	176.198164520366	5
1	2795	177.589955442461	7
1	2807	178.5	6
1	2812	178.620695758486	5
1	2814	178.666720912117	4
1	2818	178.967891140733	3
1	2842	181	3
1	2843	181.072538227241	2
1	2845	181.129288247749	1
1	2847	181.144958207968	0
1	2902	184.257789557331	1
1	2912	185.375275566105	2
1	2920	186	1
1	2921	186.086753237901	0
1	2954	188.114285616554	1
1	2956	188.164824850617	2
1	2965	188.5	1
1	2966	188.649692846985	0
1	2980	189.005696204405	1
1	2982	189.022347488715	2
1	2992	189.280034975862	3
1	3001	189.875346028973	4
1	3020	191	3
1	3023	191.161758025256	2
1	3025	191.166976818249	1
1	3027	191.297525542357	0
1	3035	191.610682330509	1
1	3037	191.623334382838	2
1	3041	191.902378866143	3
1	3046	192.263297057785	4
1	3067	193.5	3
1	3068	193.764318021236	2
1	3070	193.935487865525	1
1	3083	194.537101116807	3
1	3086	195.439264871039	4
1	3096	196	3
1	3097	196.006932940512	2
1	3099	196.254822372268	1
1	3111	196.860596893203	3
1	3113	196.894749108126	4
1	3130	198.15763119257	5
1	3137	198.5	4
1	3138	198.531987120774	3
1	3140	198.590492735359	2
1	3143	198.633491084731	3
1	3144	198.649882147115	2
1	3175	200.625309407177	4
1	3184	201	3
1	3185	201.263162846357	2
1	3187	201.272584013855	1
1	3190	201.492486130656	2
1	3215	203.5	2
1	3216	203.530515229628	1
1	3226	204.169329620537	3
1	3258	206	2
1	3259	206.333030945475	1
1	3292	208.029723093901	3
1	3294	208.074650858712	4
1	3297	208.5	3
1	3298	208.511711769665	2
1	3300	208.649286723962	1
1	3305	208.669166316309	2
1	3309	208.811759940891	3
1	3312	209.309563851015	5
1	3332	211	4
1	3333	211.145682795082	3
1	3337	211.312011385623	2
1	3339	211.322516603695	1
1	3347	211.544585252335	3
1	3375	213.5	2
1	3376	213.52101276658	1
1	3378	213.69671186468	0
1	3381	213.743498004188	1
1	3382	213.825807818885	0
1	3390	214.181796770033	2
1	3409	215.813581341372	3
1	3411	215.883059603073	4
1	3412	216	3
1	3415	216.262657271069	2
1	3418	216.309556018214	3
1	3420	216.402626463999	4
1	3432	217.299284861582	6
1	3447	218.5	5
1	3451	218.638098830624	6
1	3452	218.74141423218	5
1	3455	218.783400656402	6
1	3456	218.826192700245	5
1	3460	218.957001412749	4
1	3476	220.148900175999	6
1	3485	220.722277958807	7
1	3487	220.819552973408	8
1	3489	220.855757007029	9
1	3492	221	8
1	3493	221.131781709368	7
1	3495	221.26692217252	6
1	3522	223.382904628271	8
1	3523	223.5	7
1	3524	223.5439447491	6
1	3526	223.669836329366	5
1	3532	223.822940424135	4
1	3564	226	4
1	3565	226.198513823569	3
1	3569	226.575037596206	5
1	3599	227.789798097047	6
1	3603	227.979387642011	7
1	3609	228.5	6
1	3612	228.726108006025	5
1	3614	228.905837596964	4
1	3642	230.316332905766	6
1	3652	231	5
1	3653	231.022739605684	4
1	3656	231.052876494696	5
1	3659	231.428116997099	4
1	3664	231.479629505591	5
1	3666	231.484922663555	6
1	3671	231.78471658757	8
1	3701	233.5	7
1	3718	235.055476380146	9
1	3728	235.28293356509	10
1	3732	236	9
1	3735	236.057859865634	8
1	3737	236.177508908705	7
1	3739	236.263663291321	6
1	3742	236.307858179074	7
1	3743	236.33168320795	6
1	3746	236.38124377991	7
1	3753	236.625819032661	9
1	3757	236.823158757311	10
1	3759	236.861393316497	11
1	3795	238.5	10
1	3796	238.502792413651	9
1	3798	238.505512568849	8
1	3800	238.990817680672	7
1	3830	240.476557891583	9
1	3839	240.783199635101	10
1	3844	241	9
1	3845	241.143169289464	8
1	3852	241.238775250718	9
1	3857	241.745813491296	11
1	3860	242.009147394681	12
1	3862	242.265191089431	13
1	3883	243.5	12
1	3884	243.523060564772	11
1	3886	243.624556197573	10
1	3890	243.686037827605	9
1	3896	244.315944488745	11
1	3909	244.958016617243	12
1	3911	244.996000831895	13
1	3916	246	12
1	3917	246.222409777271	11
1	3919	246.414697198451	10
1	3929	246.837251104086	12
1	3943	247.881357053007	13
1	3948	248.232880432274	14
1	3952	248.288800582524	15
1	3955	248.5	14
1	3956	248.649288894503	13
1	3958	248.652730433132	12
1	3962	248.896392988365	11
1	3988	251	11
1	3991	251.305937486931	10
1	3993	251.452310894834	9
1	4001	251.709007077434	11
1	4003	251.862319707814	12
1	4008	252.006496946588	13
1	4037	253.5	12
1	4038	253.546150367395	11
1	4040	253.885110652304	10
1	4042	253.95850562788	9
1	4049	254.574767297159	11
1	4064	256	10
1	4065	256.347173956165	9
1	4082	257.486708743568	11
1	4103	258.5	10
1	4104	258.618981233533	9
1	4106	258.698972641616	8
1	4108	258.802189586754	7
1	4116	259.153452575865	9
1	4131	259.916759117966	10
1	4146	260.380103156512	11
1	4153	260.819951767587	12
1	4158	261	11
1	4163	261.206977886019	10
1	4182	263.189172273081	12
1	4189	263.5	11
1	4190	263.525324155539	10
1	4194	263.636350164577	9
1	4237	265.97912972056	11
1	4238	266	10
1	4239	266.23902259895	9
1	4269	268.5	9
1	4270	268.544376603613	8
1	4276	268.922979570305	7
1	4282	269.393749388862	9
1	4296	271	8
1	4297	271.064685935084	7
1	4305	271.388943255621	6
1	4328	272.446063111594	8
1	4337	273.5	7
1	4340	273.694251092794	6
1	4342	273.765190377891	5
1	4346	273.849597455322	4
1	4375	275.714654135845	6
1	4380	276	5
1	4381	276.012565006399	4
1	4383	276.049787432637	3
1	4389	276.483741820827	2
1	4413	278.5	2
1	4414	278.556093527492	1
1	4416	278.616473597053	0
1	4481	281.727705716421	2
1	4485	281.831510629382	3
1	4500	283.26052717005	4
1	4504	283.452615150856	5
1	4507	283.5	4
1	4514	284.123272985225	6
1	4526	285.251469314202	7
1	4528	285.386592662208	8
1	4534	286	7
1	4535	286.061830310246	6
1	4538	286.233587561691	7
1	4540	286.272878417282	8
1	4547	286.706472497653	10
1	4559	288.5	9
1	4562	288.895508387794	8
1	4564	288.984483847455	7
1	4592	291	7
1	4595	291.193545007625	6
1	4597	291.227084317348	5
1	4599	291.298605439055	4
1	4601	291.414872044943	3
1	4615	291.964147431857	5
1	4628	292.433866152681	6
1	4645	293.5	5
1	4646	293.577228485087	4
1	4650	293.677456642742	3
1	4652	293.760039617868	2
1	4676	296	2
1	4677	296.0211239846	1
1	4679	296.076194590078	0
1	4684	296.429782840165	1
1	4685	296.479848130421	0
1	4719	298.5	0
1	4750	301	0
1	4810	306	0
1	4823	306.851261176055	1
1	4847	308.5	0
1	4885	310.511077916008	1
1	4887	310.627097997155	2
1	4889	310.652788873032	3
1	4894	311	2
1	4901	311.335568557737	1
1	4907	311.706543614788	3
1	4921	313.5	2
1	4924	313.819198604462	1
1	4937	314.862199038014	3
1	4950	316	2
1	4951	316.017502233317	1
1	4953	316.020248552313	0
1	4983	317.85292437709	1
1	4993	318.5	0
1	4995	318.600335987566	1
1	4997	318.626983942614	2
1	4998	318.656325945528	1
1	5000	318.7329822266	0
1	5032	321	0
1	5037	321.70594480264	1
1	5054	322.486460156388	2
1	5057	323.5	1
1	5058	323.641145279735	0
1	5094	325.440028730872	1
1	5100	326	0
1	5143	328.5	0
1	5146	329.241319333653	2
1	5148	329.367617263052	3
1	5150	329.408654872993	4
1	5172	331	3
1	5173	331.056579327594	2
1	5179	331.488735369683	1
1	5185	331.780478217944	3
1	5196	332.194804518396	4
1	5198	332.278632679124	5
1	5202	332.397323479664	6
1	5221	333.5	5
1	5222	333.632120121998	4
1	5224	333.707983395412	3
1	5236	334.486038561257	5
1	5254	336	4
1	5255	336.043792033678	3
1	5263	336.931708867137	5
1	5278	338.152315722316	6
1	5279	338.5	5
1	5282	338.722660552061	4
1	5290	339.130917826085	6
1	5308	340.008241026857	7
1	5328	341	6
1	5333	341.122152335033	5
1	5357	342.751235753774	7
1	5364	343.332574416288	8
1	5365	343.5	7
1	5366	343.589086604344	6
1	5368	343.647308739642	5
1	5387	344.760663538261	7
1	5396	345.120024701932	8
1	5410	346	7
1	5411	346.024380959227	6
1	5413	346.244432511774	5
1	5415	346.251163250041	4
1	5435	347.869961200286	6
1	5445	348.5	5
1	5448	348.543805368894	4
1	5450	348.611499855338	3
1	5456	348.859114942335	2
1	5458	348.885546139161	1
1	5460	348.961874428757	0
1	5467	349.535036259211	2
1	5473	349.93029291404	3
1	5486	351	2
1	5487	351.032586097873	1
1	5489	351.32881941487	0
1	5516	353.300576911353	1
1	5521	353.5	0
1	5545	355.566454370606	1
1	5551	355.756741362562	2
1	5560	356	1
1	5563	356.396912474253	0
1	5566	356.481034643067	1
1	5568	356.499829472718	2
1	5583	358.5	2
1	5584	358.607042972248	1
1	5586	358.728940716586	0
1	5613	360.671840728697	1
1	5619	360.973960464973	2
1	5622	361	1
1	5623	361.131441821623	0
1	5651	362.585795373026	1
1	5675	363.5	0
1	5734	369.112189329057	1
1	5754	370.072122860674	2
1	5756	370.111749824379	3
1	5770	371	2
1	5782	372.214195766163	4
1	5800	373.29165687512	5
1	5805	373.5	4
1	5808	373.601220576293	3
1	5810	373.698694379544	2
1	5835	374.699383770134	4
1	5850	376	3
1	5862	377.376596519335	5
1	5884	378.449227861757	6
1	5887	378.5	5
1	5888	378.604341413459	4
1	5890	378.625807295599	3
1	5900	379.285597854159	5
1	5904	379.344315039446	6
1	5906	379.478404430498	7
1	5918	380.398891506365	8
1	5920	381	7
1	5923	381.320843475837	6
1	5925	381.337083927918	5
1	5928	381.375101548157	6
1	5935	381.912314107152	8
1	5937	381.979601287086	9
1	5957	383.5	8
1	5958	383.55541786387	7
1	5960	383.610382175051	6
1	5962	383.667998035089	5
1	5964	383.95605543246	4
1	5971	384.697563606546	6
1	5994	386	5
1	6001	386.237716022287	4
1	6003	386.274150433125	3
1	6005	386.466655645914	2
1	6011	386.929394298338	4
1	6025	388.5	3
1	6028	388.690563090931	2
1	6030	388.740637824403	1
1	6034	388.910947686281	0
1	6046	389.384648094403	1
1	6053	389.837224103857	2
1	6076	391	1
1	6079	391.11428014553	0
1	6111	392.913908005063	1
1	6121	393.5	0
1	6128	394.459991483402	1
1	6152	396	0
1	6154	396.040030723105	1
1	6155	396.069679256005	0
1	6205	398.705085300851	1
1	6253	400.880551866822	3
1	6256	401	2
1	6259	401.341214173308	1
1	6263	401.35798802178	0
1	6268	402.251382947399	2
1	6270	402.253370709686	3
1	6274	402.332472692769	4
1	6293	403.5	3
1	6294	403.614729085463	2
1	6298	403.677802056654	1
1	6303	403.698031509567	2
1	6306	403.869319935895	1
1	6320	404.384805760013	3
1	6322	404.496913753352	4
1	6330	405.091973685426	5
1	6348	406	4
1	6349	406.051283469032	3
1	6353	406.068877384326	2
1	6366	407.291013002817	4
1	6368	407.365132319684	5
1	6383	408.5	4
1	6384	408.565610141055	3
1	6386	408.604862018441	2
1	6390	408.676019645409	1
1	6394	408.77834883058	0
1	6397	408.867659823144	1
1	6398	408.888574661982	0
1	6403	408.985914910344	1
1	6424	411	1
1	6425	411.061950200034	0
1	6444	412.048785610928	1
1	6457	413.5	0
1	6506	417.461090427061	1
1	6521	418.5	0
1	6528	419.391353705264	2
1	6532	420.341484939221	3
1	6538	421	2
1	6539	421.002681114204	1
1	6541	421.128052486932	0
1	6559	422.974810602699	1
1	6564	423.046938349735	2
1	6569	423.5	1
1	6570	423.568259717023	0
1	6608	426.291894238929	1
1	6609	426.411802424121	0
1	6617	426.637646548691	1
1	6638	428.101724771057	2
1	6644	428.397541385212	3
1	6645	428.5	2
1	6648	428.634884343302	1
1	6650	428.823045330243	0
1	6669	429.77564322169	1
1	6673	429.859434390056	2
1	6686	431	1
1	6688	431.093766525979	2
1	6691	431.191212876103	1
1	6693	431.335997235854	0
1	6736	434.249210977582	1
1	6747	434.933912627039	2
1	6752	435.102813299441	3
1	6767	435.847935888807	4
1	6768	436	3
1	6769	436.050978861294	2
1	6773	436.41006682977	1
1	6779	436.721433447813	3
1	6793	437.576828066333	4
1	6813	438.5	3
1	6814	438.500773498865	2
1	6822	439.082660623799	4
1	6826	439.25308238911	5
1	6828	439.457425762392	6
1	6843	440.857945153726	7
1	6846	441	6
1	6847	441.274741826147	5
1	6851	441.345314017368	4
1	6853	441.408979516338	3
1	6877	442.848097698286	5
1	6889	443.5	4
1	6890	443.56714348302	3
1	6895	443.778271091133	4
1	6923	445.56031258608	6
1	6930	446	5
1	6931	446.120234457923	4
1	6933	446.274300767959	3
1	6936	446.305608456812	4
1	6939	446.493815574832	3
1	6959	447.821162287392	5
1	6975	448.5	4
1	6976	448.622272409372	3
1	6985	448.999867592523	4
1	7008	450.270707798461	6
1	7024	451	5
1	7057	453.5	5
1	7058	453.526743231975	4
1	7060	453.617344082068	3
1	7065	454.712601099174	5
1	7067	454.805234394996	6
1	7069	454.850712188147	7
1	7078	455.361147516919	8
1	7086	456	7
1	7087	456.23479917797	6
1	7089	456.30755755737	5
1	7097	456.981923628609	7
1	7123	458.5	6
1	7124	458.538797769107	5
1	7126	458.58632690461	4
1	7134	459.17361482816	6
1	7158	461	5
1	7162	461.201772460922	6
1	7165	461.461339000657	5
1	7180	462.048942418983	7
1	7203	463.5	6
1	7238	465.343926621679	8
1	7247	465.57102345012	9
1	7258	466	8
1	7259	466.225374339311	7
1	7261	466.484477434194	6
1	7272	467.134276957365	8
1	7274	467.17511711464	9
1	7276	467.224931339275	10
1	7282	467.385210616443	11
1	7285	467.600599819426	12
1	7294	468.192778787242	13
1	7301	468.5	12
1	7306	468.798453869578	11
1	7310	468.967970208296	10
1	7318	469.363211890665	12
1	7325	469.555940699044	13
1	7337	470.537092763723	14
1	7344	471	13
1	7349	471.157342101239	12
1	7351	471.262820333476	11
1	7369	472.773539877006	13
1	7381	473.5	12
1	7382	473.510108243832	11
1	7384	473.647439668377	10
1	7395	474.749918503869	12
1	7415	475.803634930788	13
1	7417	475.847073484897	14
1	7420	476	13
1	7422	476.024250210961	14
1	7423	476.167941066642	13
1	7429	476.388451320069	12
1	7448	477.490707229543	14
1	7458	478.315586844632	15
1	7462	478.336851408658	16
1	7469	478.5	15
1	7470	478.529336613098	14
1	7472	478.710399365757	13
1	7474	478.74679997487	12
1	7479	478.782142694792	13
1	7480	478.880142350538	12
1	7486	479.205922280164	14
1	7488	479.373496086109	15
1	7508	481	14
1	7509	481.037491297573	13
1	7511	481.107489993758	12
1	7515	481.765449756111	14
1	7533	482.527277113461	15
1	7537	482.762173773028	16
1	7539	482.872320995424	17
1	7546	483.209698116597	18
1	7550	483.284311738971	19
1	7553	483.5	18
1	7556	483.859365967396	17
1	7558	483.911742924886	16
1	7575	484.97063082738	18
1	7578	485.255778824566	19
1	7588	486	18
1	7589	486.087818799936	17
1	7591	486.175381694307	16
1	7593	486.184352388334	15
1	7599	486.404758082061	14
1	7601	486.458907245495	13
1	7609	486.828673277554	15
1	7635	488.5	14
1	7636	488.505941577221	13
1	7638	488.521920473781	12
1	7642	488.636090532886	11
1	7649	488.862030301924	12
1	7655	489.992267539951	14
1	7670	491	13
1	7673	491.246251624729	12
1	7690	492.191183323896	14
1	7703	492.894844080724	15
1	7717	493.5	14
1	7720	493.654597639149	13
1	7723	493.735849729818	14
1	7724	493.824534546634	13
1	7726	493.875455541153	12
1	7728	493.953405392746	11
1	7756	496	11
1	7757	496.178456215708	10
1	7767	496.530922150728	12
1	7789	497.967129096557	13
1	7797	498.5	12
1	7798	498.525664934737	11
1	7807	499.546096137989	13
1	7824	500.315934811327	14
1	7830	501	13
1	7831	501.068190347323	12
1	7835	501.189730974923	11
1	7837	501.315526069819	10
1	7843	501.88281800305	12
1	7853	502.651842350884	13
1	7870	503.385248631643	14
1	7871	503.5	13
1	7874	503.627803804422	12
1	7878	503.991513726498	11
1	7885	504.693401696794	13
1	7888	505.139549875361	14
1	7902	506	13
1	7903	506.152229324562	12
1	7905	506.157962041759	11
1	7908	506.187875415401	12
1	7911	506.46941226211	11
1	7913	506.490945280375	10
1	7924	507.303063330475	12
1	7940	508.08601313652	13
1	7945	508.5	12
1	7946	508.608527730444	11
1	7950	508.799101822722	10
1	7952	508.813155377423	9
1	7956	509.040662802768	11
1	7987	510.783625883038	12
1	7994	511	11
1	8015	512.733390755082	13
1	8018	513.336479148213	14
1	8019	513.5	13
1	8020	513.554153994998	12
1	8025	513.576993075058	13
1	8026	513.626505520558	12
1	8028	513.658626982612	11
1	8034	514.038217901673	13
1	8043	514.701886210992	14
1	8064	516	13
1	8065	516.001101992575	12
1	8072	516.33087900863	13
1	8077	516.753671652397	15
1	8093	518.5	14
1	8094	518.764270585993	13
1	8096	518.966495040885	12
1	8130	521	12
1	8131	521.250390306263	11
1	8133	521.49280295512	10
1	8163	523.5	10
1	8164	523.672410921723	9
1	8190	526	9
1	8193	526.24866168037	8
1	8197	526.370596729573	7
1	8199	526.44821624096	6
1	8205	526.64549159214	8
1	8227	528.5	7
1	8228	528.652899434899	6
1	8230	528.831603127349	5
1	8232	528.834763183655	4
1	8259	530.556769268708	6
1	8263	530.873203036714	7
1	8264	531	6
1	8265	531.043578729627	5
1	8270	531.230805465447	6
1	8271	531.37125152362	5
1	8277	531.585169485687	7
1	8290	532.402364182567	8
1	8298	533.299644157031	9
1	8299	533.5	8
1	8301	533.542094436209	9
1	8310	534.378833927253	11
1	8327	535.645640966355	12
1	8334	536	11
1	8335	536.00936137062	10
1	8337	536.033295693009	9
1	8340	536.109936686401	10
1	8341	536.24364758826	9
1	8375	538.5	9
1	8377	538.513638133362	10
1	8381	538.581202944704	11
1	8382	538.582241045506	10
1	8392	539.244726415613	12
1	8414	541	11
1	8415	541.194990108181	10
1	8423	541.835355869304	12
1	8430	542.002468199152	13
1	8434	542.247927758263	14
1	8449	542.84126058587	15
1	8459	543.5	14
1	8462	543.686929391941	13
1	8464	543.708614532031	12
1	8494	546	12
1	8497	546.102213349141	11
1	8528	548.316725651515	13
1	8533	548.5	12
1	8534	548.64086508281	11
1	8536	548.901534597334	10
1	8538	548.903527008586	9
1	8551	549.520109572671	11
1	8562	550.108525315739	12
1	8576	551	11
1	8577	551.158076568278	10
1	8579	551.28597087604	9
1	8581	551.34620441977	8
1	8617	553.5	8
1	8618	553.935513603984	7
1	8633	554.886858233055	9
1	8653	555.782059777979	10
1	8658	556	9
1	8661	556.323675983389	8
1	8663	556.344904611313	7
1	8665	556.351055927468	6
1	8692	557.048750286269	8
1	8709	558.5	7
1	8710	558.566012133291	6
1	8712	558.578673702744	5
1	8714	558.704959870514	4
1	8718	558.829222399044	3
1	8720	558.830327534994	2
1	8746	561	2
1	8747	561.070268484942	1
1	8753	561.450729363854	0
1	8781	564.528277265478	1
1	8804	566	0
1	8808	566.371654444594	1
1	8809	566.404356596988	0
1	8842	568.286846889455	2
1	8849	568.5	1
1	8850	568.717925434585	0
1	8864	569.471030993326	1
1	8878	571	0
1	8906	572.128497884756	1
1	8933	573.5	0
1	8965	575.672155229824	1
1	8968	576	0
1	9039	580.586766042598	1
1	9041	580.612585471618	2
1	9048	581	1
1	9051	581.06669151696	0
1	9075	582.563699829032	1
1	9079	582.678120359017	2
1	9087	583.5	1
1	9088	583.533046216733	0
1	9109	584.899563903785	2
1	9116	586	1
1	9117	586.125132020534	0
1	9146	588.22581339318	1
1	9153	588.5	0
1	9167	589.659703750095	1
1	9178	591	0
1	9203	592.959862890758	1
1	9205	593.5	0
1	9214	594.031618845422	1
1	9246	596	0
1	9261	596.965728928105	1
1	9264	597.142862909134	2
1	9268	597.187617633072	3
1	9285	598.5	2
1	9292	599.049372929084	4
1	9299	599.536320698891	5
1	9322	600.487208250777	6
1	9332	601	5
1	9335	601.067008989692	4
1	9337	601.100661815177	3
1	9339	601.123034095432	2
1	9341	601.429378315381	1
1	9373	603.5	1
1	9374	603.647053249732	0
1	9404	605.338431773018	1
1	9411	605.639137191426	2
1	9412	606	1
1	9417	606.411095635872	0
1	9456	609.066983960463	1
1	9486	611	0
1	9540	615.038876457662	1
1	9544	615.192237782484	2
1	9552	616	1
1	9553	616.074956943154	0
1	9560	616.447547943244	1
1	9568	617.302222266084	3
1	9593	618.5	2
1	9596	618.866764055243	1
1	9615	619.715358275996	3
1	9617	619.889620154134	4
1	9620	620.283413894442	5
1	9626	621	4
1	9629	621.098482774273	3
1	9631	621.27202111287	2
1	9633	621.296719391671	1
1	9670	623.360256453298	3
1	9677	623.5	2
1	9680	623.671319949023	1
1	9682	623.797207460392	0
1	9690	624.389989806387	1
1	9692	624.391478921476	2
1	9701	624.683239436218	3
1	9722	626	2
1	9727	626.177444361993	1
1	9729	626.345897383131	0
1	9752	628.493026545423	1
1	9753	628.5	0
1	9764	629.192639471533	1
1	9792	631	0
1	9803	631.83936993788	1
1	9831	633.5	0
1	9886	637.152836242031	1
1	9893	638.5	0
1	9898	639.047798288403	1
1	9926	641	0
1	9943	641.892367392948	1
1	9950	642.048944201096	2
1	9968	643.231912112053	3
1	9972	643.459047197389	4
1	9973	643.5	3
1	9974	643.533864304289	2
1	9976	643.562894916974	1
1	9978	643.62875968045	0
1	9984	644.06856428913	1
1	10024	646	0
1	10037	646.766254402723	2
1	10059	647.943341105543	3
1	10068	648.288771455546	4
1	10071	648.5	3
1	10074	648.707153636073	2
1	10076	648.865172923327	1
1	10078	648.985945423067	0
1	10109	650.751714292768	1
1	10110	651	0
1	10132	653.057712629328	1
1	10139	653.5	0
1	10185	656.82949858425	1
1	10199	657.859087111664	2
1	10202	658.12697253786	3
1	10204	658.182094357933	4
1	10215	658.5	3
1	10216	658.956921162985	2
1	10238	661	2
1	10243	661.392851001108	1
1	10269	663.5	1
1	10270	663.506431462693	0
1	10291	664.907689969844	1
1	10299	665.583774865001	2
1	10308	666	1
1	10311	666.014425364139	0
1	10330	667.13960855977	1
1	10334	667.285208235918	2
1	10361	668.5	1
1	10362	668.515330205872	0
1	10378	669.28590067536	1
1	10382	669.382892667844	2
1	10400	671	1
1	10401	671.304212757111	0
1	10411	671.889685269649	2
1	10421	672.906715838947	3
1	10425	673.5	2
1	10428	673.737546438331	1
1	10430	673.852789695693	0
1	10436	674.053864878828	2
1	10456	676	1
1	10462	676.235237330296	2
1	10464	676.355229583558	3
1	10467	676.961548596875	5
1	10476	677.433529855592	6
1	10495	678.5	5
1	10496	678.505106677624	4
1	10498	678.677501052759	3
1	10517	680.533141683528	5
1	10519	680.573256686234	6
1	10520	681	5
1	10521	681.02360366016	4
1	10523	681.02517183496	3
1	10525	681.116612839371	2
1	10531	681.294451817595	1
1	10567	683.5	1
1	10584	685.151324869947	3
1	10600	686	2
1	10623	688.5	2
1	10626	688.632779679298	1
1	10628	688.653460650241	0
1	10631	688.722391685699	1
1	10638	689.242524344321	3
1	10667	690.787672976615	4
1	10670	691	3
1	10671	691.027482619989	2
1	10673	691.03526692364	1
1	10675	691.04674843291	0
1	10738	695.161094543229	1
1	10749	695.596062553253	2
1	10756	696	1
1	10759	696.297756641965	0
1	10771	696.771305769559	1
1	10789	698.5	0
1	10800	699.333153613142	1
1	10809	699.784223521369	2
1	10826	701	1
1	10827	701.012083604807	0
1	10851	701.878508823267	1
1	10856	702.018804707922	2
1	10880	703.441133574994	3
1	10881	703.5	2
1	10884	703.688317362377	1
1	10886	703.818943043139	0
1	10917	705.950139514916	2
1	10918	706	1
1	10919	706.014468613405	0
1	10938	707.311315039663	1
1	10949	707.956854003179	2
1	10963	708.5	1
1	10964	708.560369085243	0
1	10973	709.524488744763	1
1	10977	709.804830767989	2
1	10988	710.376670952402	3
1	10996	711	2
1	11012	713.262553533238	4
1	11019	713.5	3
1	11020	713.529061414854	2
1	11047	715.763028900809	4
1	11048	716	3
1	11049	716.007239871378	2
1	11052	716.107190531734	3
1	11053	716.112261673766	2
1	11055	716.130851026729	1
1	11057	716.162148130418	0
1	11065	716.547431443933	2
1	11067	716.620313770882	3
1	11087	718.5	2
1	11088	718.667040355026	1
1	11091	718.942621826248	2
1	11092	718.988112807033	1
1	11096	719.090997125117	3
1	11111	719.877921852604	4
1	11130	721	3
1	11131	721.080366932689	2
1	11136	721.154534342139	3
1	11137	721.298900167479	2
1	11139	721.481408093383	1
1	11159	722.501894436333	3
1	11173	723.5	2
1	11174	723.585559431119	1
1	11176	723.822385714415	0
1	11235	727.767408168559	1
1	11251	728.5	0
1	11257	728.886806132226	1
1	11259	728.988626964468	2
1	11292	731	2
1	11293	731.222163266457	1
1	11317	732.563471622017	3
1	11331	733.5	2
1	11336	733.869244954877	1
1	11338	733.885646405756	0
1	11345	734.593784406019	2
1	11363	735.547156910655	3
1	11367	735.680318423206	4
1	11370	736	3
1	11371	736.194269634383	2
1	11373	736.269239708647	1
1	11381	736.995749978679	3
1	11390	737.179920809993	4
1	11392	737.204242546465	5
1	11415	738.5	4
1	11416	738.78294601719	3
1	11418	738.857759807571	2
1	11420	738.938031952348	1
1	11440	740.28646686103	3
1	11464	741	2
1	11469	741.252444063655	1
1	11471	741.382338577441	0
1	11494	742.22566288409	2
1	11498	742.451412549366	3
1	11506	743.416508127806	4
1	11507	743.5	3
1	11512	744.013034185917	5
1	11523	744.62943199099	6
1	11527	744.906155987105	7
1	11539	745.900179023952	8
1	11541	745.903624763725	9
1	11542	746	8
1	11545	746.047124212103	7
1	11548	746.07030985715	8
1	11549	746.287911283536	7
1	11552	746.308123633679	8
1	11555	746.461263979963	7
1	11561	746.613189432057	9
1	11565	746.941478157593	10
1	11569	746.983340870936	11
1	11578	747.357731369437	12
1	11595	747.993349836202	13
1	11605	748.5	12
1	11606	748.565026769461	11
1	11609	748.593595860215	12
1	11614	748.743604022664	11
1	11633	749.78337127171	13
1	11642	750.40369948096	14
1	11644	751	13
1	11645	751.006358518947	12
1	11681	753.5	12
1	11682	753.721334812473	11
1	11684	753.75518447499	10
1	11688	753.946968938819	9
1	11697	754.734672907632	11
1	11714	756	10
1	11755	758.5	10
1	11760	758.736930392152	9
1	11762	758.742582248246	8
1	11766	759.382092420012	10
1	11792	761	9
1	11794	761.042817553818	10
1	11795	761.132755287854	9
1	11798	761.193989500407	10
1	11799	761.341815302424	9
1	11809	761.995805014728	11
1	11820	762.20812802386	12
1	11834	763.112694945761	13
1	11837	763.5	12
1	11838	763.508815089359	11
1	11840	763.945240546155	10
1	11844	764.052639522111	12
1	11863	765.98974700259	13
1	11864	766	12
1	11865	766.005416923233	11
1	11868	766.076778917338	12
1	11879	766.991130120874	14
1	11896	768.300622619465	15
1	11898	768.333828768183	16
1	11901	768.5	15
1	11907	768.711324449745	16
1	11908	768.792515160696	15
1	11910	768.956352229667	14
1	11914	769.189347515716	16
1	11919	769.785918936538	17
1	11928	771	16
1	11929	771.042039014817	15
1	11931	771.207066371477	14
1	11933	771.339308320858	13
1	11935	771.397427789722	12
1	11937	771.433697073058	11
1	11967	773.5	11
1	11969	773.545701786079	12
1	11972	773.690499852141	11
1	11974	773.705019677879	10
1	11977	773.7345799245	11
1	11978	773.940103797172	10
1	11987	774.756641557323	12
1	11998	775.384807128783	13
1	12006	776	12
1	12007	776.357460109999	11
1	12009	776.407404087178	10
1	12011	776.498674701484	9
1	12021	776.999163453023	11
1	12031	777.787076200945	12
1	12039	778.5	11
1	12040	778.59034385131	10
1	12044	778.660575240579	9
1	12046	778.747184245966	8
1	12048	778.85508532754	7
1	12052	778.998494037175	6
1	12058	779.181695595964	8
1	12098	781	7
1	12099	781.07436981679	6
1	12104	781.489993325182	7
1	12112	782.249841232941	9
1	12129	783.5	8
1	12130	783.575587831031	7
1	12132	783.595829820181	6
1	12142	784.452081380691	8
1	12151	784.918357541183	9
1	12164	786	8
1	12165	786.027185789465	7
1	12167	786.360066373349	6
1	12178	787.325865771434	8
1	12197	788.5	7
1	12198	788.560810676315	6
1	12200	788.683489855075	5
1	12202	788.703741820494	4
1	12204	788.720769295699	3
1	12206	788.917797499998	2
1	12217	789.523732382495	4
1	12238	791	3
1	12239	791.256170580288	2
1	12241	791.321535957993	1
1	12243	791.47432490297	0
1	12252	792.046252001875	2
1	12270	793.100607832744	3
1	12273	793.5	2
1	12278	793.661576415963	1
1	12280	793.667048659546	0
1	12329	796.57401626583	1
1	12349	797.940422570728	2
1	12357	798.5	1
1	12358	798.59570877786	0
1	12375	799.534611541666	1
1	12408	801	0
1	12424	802.204945537983	1
1	12437	802.633011805665	2
1	12448	803.408235793145	3
1	12451	803.5	2
1	12452	803.640025833831	1
1	12458	803.915902191569	0
1	12464	804.059360176214	1
1	12474	805.441206149251	2
1	12477	805.627899642407	3
1	12478	806	2
1	12482	806.235162968329	3
1	12483	806.28734585457	2
1	12485	806.412514432686	1
1	12505	807.680995802821	3
1	12513	808.5	2
1	12514	808.587153667859	1
1	12518	808.698564864696	0
1	12531	809.564115062777	1
1	12538	810.040777500389	2
1	12546	811	1
1	12547	811.009114450138	0
1	12568	813.058373401929	1
1	12579	813.5	0
1	12626	817.02056497529	1
1	12635	817.638734450272	2
1	12640	818.207543021554	3
1	12641	818.5	2
1	12642	818.55825383409	1
1	12644	818.560710970731	0
1	12676	820.361385680852	2
1	12684	821	1
1	12687	821.084379311079	0
1	12721	822.784955167599	1
1	12735	823.5	0
1	12759	824.885864480989	1
1	12768	825.380060170125	2
1	12770	825.47897930356	3
1	12786	826	2
1	12789	826.340451315045	1
1	12799	826.821835897634	3
1	12804	827.196099373802	4
1	12813	827.647512704346	5
1	12818	828.161516177249	6
1	12824	828.318143135793	7
1	12827	828.5	6
1	12832	828.804724361233	5
1	12834	828.821218082486	4
1	12836	828.852552489598	3
1	12854	830.393667087488	5
1	12856	830.493920326061	6
1	12859	830.583203937987	7
1	12869	830.958608842101	8
1	12870	831	7
1	12873	831.347623265092	6
1	12880	832.050400073271	8
1	12896	833.002647088916	9
1	12907	833.5	8
1	12908	833.521972546003	7
1	12910	833.730877763673	6
1	12913	833.806372093238	7
1	12920	833.962301665322	6
1	12925	834.506443854327	8
1	12931	834.880008244323	9
1	12952	836	8
1	12975	838.5	8
1	12976	838.605722815683	7
1	12978	838.733691289955	6
1	13002	840.387793561016	8
1	13013	840.63336820527	9
1	13019	840.816325891549	10
1	13024	841	9
1	13025	841.104573438569	8
1	13029	841.250935998635	7
1	13031	841.261736762897	6
1	13033	841.304879217442	5
1	13072	843.478004215076	7
1	13073	843.5	6
1	13074	843.743940532485	5
1	13076	843.783366365996	4
1	13078	843.81637451678	3
1	13082	844.162052735689	5
1	13095	844.940187376358	6
1	13100	845.273522746918	7
1	13114	846	6
1	13115	846.024870675618	5
1	13118	846.479186392697	6
1	13143	848.5	6
1	13144	848.514748231969	5
1	13148	848.657771350127	4
1	13150	848.725496902082	3
1	13156	848.855906207474	2
1	13167	849.982308341895	4
1	13179	850.808245110407	5
1	13184	851	4
1	13189	851.44577871979	3
1	13200	852.064965235504	5
1	13222	853.316800284034	6
1	13227	853.5	5
1	13228	853.540738011291	4
1	13230	853.748785051696	3
1	13232	853.94388115293	2
1	13276	856	2
1	13277	856.347320453595	1
1	13279	856.426217640798	0
1	13314	858.260872518736	1
1	13319	858.5	0
1	13333	859.559758925437	2
1	13350	861	1
1	13351	861.014116246428	0
1	13356	861.048896871128	1
1	13357	861.166584806755	0
1	13373	861.856778043162	1
1	13375	861.915458905298	2
1	13386	862.402710588039	3
1	13391	862.63727496133	4
1	13410	863.227643194318	5
1	13415	863.5	4
1	13416	863.531232364924	3
1	13422	863.61514157955	2
1	13426	863.853669441797	1
1	13460	865.493400187063	3
1	13464	866	2
1	13465	866.006643770829	1
1	13471	866.419449424485	0
1	13484	867.207707555818	1
1	13495	867.778710189623	2
1	13503	868.5	1
1	13508	868.712678754149	0
1	13540	871	0
1	13595	875.936254565925	1
1	13596	876	0
1	13598	876.137532661564	1
1	13601	876.471865613625	0
1	13612	877.283151662489	2
1	13630	878.135622012892	3
1	13633	878.5	2
1	13634	878.600225979622	1
1	13636	878.614648737733	0
1	13648	879.172501609073	1
1	13653	879.911136032117	2
1	13655	879.981605872341	3
1	13663	880.613881125591	4
1	13666	881	3
1	13668	881.081525578996	4
1	13670	881.105325717033	5
1	13671	881.122449444316	4
1	13673	881.410349541312	3
1	13693	882.557989593818	5
1	13707	883.5	4
1	13713	883.559098375562	5
1	13714	883.691265367024	4
1	13716	883.729208927092	3
1	13718	883.964175165564	2
1	13732	885.139179195113	4
1	13750	886	3
1	13753	886.193968699437	2
1	13757	886.227790683443	1
1	13759	886.384108455587	0
1	13765	886.518324277196	2
1	13790	888.453791877256	3
1	13791	888.5	2
1	13792	888.648955359318	1
1	13794	888.967622763011	0
1	13814	891	0
1	13818	891.335224958988	1
1	13846	893.448085711003	3
1	13847	893.5	2
1	13852	893.584803548756	1
1	13855	893.589253656862	2
1	13859	893.803452717153	3
1	13860	893.889100950636	2
1	13870	894.298030189824	4
1	13876	894.462052382826	5
1	13885	894.768821477874	6
1	13902	896	5
1	13903	896.046339681256	4
1	13905	896.063383500546	3
1	13909	896.249903839276	2
1	13911	896.294043397197	1
1	13915	896.481582160337	0
1	13949	898.5	0
1	13955	898.876507749809	1
1	13962	899.473386141664	3
1	13971	899.825650374196	4
1	13990	901	3
1	13991	901.119439040737	2
1	13993	901.154735537193	1
1	13995	901.160336033002	0
1	14018	902.076432174178	1
1	14031	902.974745472115	2
1	14033	903.5	1
1	14034	903.517052142088	0
1	14068	905.293308819164	1
1	14077	905.911820161306	2
1	14080	906	1
1	14085	906.221244110761	0
1	14097	906.831467395717	2
1	14102	907.165771521233	3
1	14107	907.670685710293	4
1	14112	908.112788506711	5
1	14119	908.5	4
1	14120	908.541628784658	3
1	14130	908.919661136984	2
1	14155	909.988244635089	4
1	14164	911	3
1	14165	911.075172927225	2
1	14167	911.169940669061	1
1	14169	911.25054523054	0
1	14195	912.99470532153	1
1	14211	913.5	0
1	14226	914.318015856384	1
1	14252	916	0
1	14259	916.507515902049	1
1	14263	916.858175098008	2
1	14266	917.021682395935	3
1	14268	917.054977500499	4
1	14270	917.103044810141	5
1	14295	918.5	4
1	14296	918.588713597578	3
1	14298	918.652856133092	2
1	14300	918.804204263658	1
1	14307	919.504448431189	3
1	14315	920.768053303341	4
1	14318	921	3
1	14321	921.322396633455	2
1	14345	922.972679328613	4
1	14363	923.5	3
1	14364	923.512753965219	2
1	14366	923.607639427048	1
1	14368	923.705018810597	0
1	14385	924.567682799085	1
1	14391	924.960421957407	2
1	14401	925.754866749131	3
1	14410	926	2
1	14414	926.178010560828	3
1	14416	926.20598789885	4
1	14417	926.206095668244	3
1	14420	926.313572954334	4
1	14453	928.5	4
1	14458	928.913801941194	3
1	14474	930.404289917121	5
1	14481	930.635511423232	6
1	14483	930.708207493625	7
1	14486	931	6
1	14489	931.216067522685	5
1	14491	931.380156662086	4
1	14501	931.916045871827	6
1	14504	932.064375695523	7
1	14508	932.246432849625	8
1	14515	932.918714976777	9
1	14531	933.5	8
1	14532	933.55963681873	7
1	14534	933.700556776711	6
1	14536	933.739203101508	5
1	14538	933.792739364951	4
1	14540	933.81732159841	3
1	14543	933.817794469158	4
1	14544	933.828662025036	3
1	14546	933.832478421029	2
1	14548	933.948133525623	1
1	14552	934.035192071373	3
1	14558	934.238816619207	4
1	14563	934.617526276182	5
1	14586	936	4
1	14589	936.151829004586	3
1	14607	937.923472443072	5
1	14614	938.146335273862	6
1	14617	938.5	5
1	14620	939.235588528332	7
1	14642	941	6
1	14649	941.4662001215	5
1	14653	941.63858039613	7
1	14682	943.436979244202	8
1	14687	943.5	7
1	14690	943.840825184297	6
1	14704	944.272233586296	8
1	14738	946	7
1	14745	946.296178536478	6
1	14747	946.342099008302	5
1	14750	946.398231936938	6
1	14753	946.41873044289	5
1	14755	946.481741905371	4
1	14761	946.731037852956	6
1	14779	947.990826163958	7
1	14788	948.296848086253	8
1	14791	948.5	7
1	14792	948.551879305752	6
1	14795	948.750054485217	7
1	14796	948.760269589455	6
1	14798	948.822659418703	5
1	14803	948.938018839752	6
1	14817	949.663382777488	8
1	14834	951	7
1	14835	951.252474373225	6
1	14861	953.5	6
1	14862	953.527682265602	5
1	14864	953.80730686666	4
1	14872	954.254644567547	6
1	14885	954.771284005466	7
1	14888	955.284996462315	8
1	14900	956	7
1	14901	956.076742392637	6
1	14903	956.094775619343	5
1	14909	956.306442694465	4
1	14911	956.348583573333	3
1	14913	956.351682437606	2
1	14949	958.5	2
1	14950	958.731793293869	1
1	14952	958.751912492142	0
1	14982	960.25176993655	2
1	14986	961	1
1	14987	961.142848904884	0
1	14997	961.59975346952	1
1	15030	963.419489422462	2
1	15031	963.5	1
1	15032	963.695470014592	0
1	15040	964.205007496752	2
1	15049	965.587275354405	3
1	15052	966	2
1	15053	966.152708718723	1
1	15056	966.23147179476	2
1	15057	966.418142860552	1
1	15079	967.815372962535	3
1	15083	967.942499286072	4
1	15089	968.5	3
1	15090	968.532018077508	2
1	15094	968.653387645119	1
1	15096	968.735835114402	0
1	15119	969.941222539095	1
1	15129	970.723405902095	2
1	15133	970.829207755967	3
1	15138	971	2
1	15143	971.327247010147	1
1	15169	973.5	1
1	15172	973.535067505592	0
1	15182	974.2378884453	2
1	15186	974.446939996076	3
1	15191	974.594729576239	4
1	15206	976	3
1	15212	976.245719367387	4
1	15213	976.262076573308	3
1	15215	976.28440078219	2
1	15239	977.816525562563	4
1	15247	978.5	3
1	15248	978.976814661061	2
1	15254	979.128583757229	4
1	15265	979.569810387785	5
1	15288	981	4
1	15293	981.286396653464	3
1	15295	981.453760985936	2
1	15310	982.452830584287	4
1	15321	982.751494751238	5
1	15327	983.5	4
1	15329	983.518212766141	5
1	15330	983.719682827179	4
1	15332	983.891862994567	3
1	15355	985.810865861005	5
1	15356	986	4
1	15367	986.586676440586	6
1	15396	988.482798538929	7
1	15397	988.5	6
1	15398	988.650367548068	5
1	15401	988.732121730498	6
1	15402	988.739406738061	5
[...]
17	44688	2855.573989329769	278.04580389002
17	44690	2855.780908442523	508.6692379398
17	44692	2855.930287053533	275.38534077917
17	44731	2858.112410131738	727.38165841663
17	44735	2858.120170112843	274.46558367234
17	44794	2860.61869855718	276.69712570741
17	44796	2860.700365329164	276.53792228044
17	44798	2860.913925452791	276.41177337381
17	44827	2863.1777294651	278.37590040067
17	44835	2863.499346068319	278.33155635666
17	44880	2865.570492613556	728.11008544438
17	44909	2868.329339801202	511.16381935285
17	44938	2870.901155285735	279.36306294286
17	45004	2875.559472357647	516.91030366242
17	45012	2875.956696868443	282.19773406056
17	45014	2875.979504854609	280.95325164868
17	45061	2878.223232348793	282.13620987541
17	45063	2878.463367084476	282.32298196107
17	45098	2880.641475499201	953.9773015281
17	45100	2880.654094858888	281.5728983641
17	45127	2883.434154706084	521.15784901443
17	45162	2885.805673502873	283.07409884633
17	45207	2888.070546425714	283.14518747526
17	45213	2888.439828335686	523.47616533598
17	45248	2890.509154779944	281.35940489787
17	45250	2890.530483268272	1128.5342034522
17	45252	2890.800532296315	277.90648367421
17	45254	2890.825435797112	277.88965079904
17	45326	2895.782498775368	279.57556548959
17	45359	2898.396049765572	523.89213248482
17	45396	2900.510929999504	522.08488483874
17	45398	2900.561267558085	278.19421399632
17	45400	2900.573245753556	277.33545404504
17	45402	2900.637394774939	277.37505564782
17	45406	2900.645866250536	737.34364309546
17	45408	2900.87442276997	276.56041738338
17	45410	2900.925844250517	275.05025675674
17	45443	2903.282300843513	277.20935862257
17	45472	2905.722278547802	521.40494509647
17	45507	2908.280725001576	278.74594179605
17	45511	2908.419914934608	278.85574955378
17	45556	2910.764887131062	279.13376810822
17	45558	2910.798014751921	277.56120598489
17	45560	2910.889940860288	948.85074422076
17	45597	2913.206706025552	278.60631135411
17	45683	2918.204491042383	279.91968174036
17	45724	2920.639191554781	956.84857682534
17	45728	2920.905018942116	526.99487468282
17	45767	2923.051288014914	280.97782747456
17	45771	2923.229825022191	280.83529346661
17	45798	2925.580064141834	282.58234951591
17	45802	2925.892460711506	528.65926957012
17	45806	2925.979869841758	282.31415098056
17	45833	2928.154022297504	283.58624372661
17	45931	2933.070347112744	748.16868833337
17	45933	2933.086763430015	531.6508643778
17	45939	2933.247700502177	281.27585932664
17	45980	2935.534604005503	281.87039351043
17	45984	2935.736942271288	951.33181253818
17	45986	2935.907292428301	279.34212126718
17	46021	2938.129592188781	526.55222299926
17	46066	2940.688150625879	281.5896715474
17	46068	2940.740972066312	281.26135080657
17	46070	2940.869585924107	280.28506092279
17	46099	2943.348976398194	743.88793067922
17	46101	2943.378480721034	278.82608141761
17	46130	2945.596125215041	528.27715658233
17	46157	2948.135015845958	281.75881199043
17	46159	2948.139909613194	281.65504401573
17	46161	2948.258381731067	281.76162868997
17	46163	2948.2931059438	280.3869695481
17	46188	2950.851195361834	281.32971282477
17	46190	2950.856668585071	532.29139748036
17	46262	2955.651766890415	283.91208842706
17	46264	2955.788768283498	533.35597282084
17	46295	2958.098160419682	752.25118741144
17	46410	2965.655823615648	287.44378618367
17	46439	2968.139075242188	539.897204423
17	46441	2968.152553330634	289.54344912829
17	46474	2970.840506059038	763.24810694066
17	46522	2975.686462320699	291.5482123441
17	46524	2975.701094005995	291.15119570552
17	46526	2975.7485835949	290.42503373925
17	46528	2975.986029167697	761.60840857379
17	46555	2978.359215938372	537.4572153157
17	46613	2983.347236177414	289.70951659033
17	46660	2985.695844755519	756.79852165828
17	46662	2985.880002552204	288.84812874216
17	46691	2988.037067007976	289.91877267525
17	46695	2988.309349967892	289.94091237966
17	46697	2988.368241488443	539.06208009912
17	46748	2990.784916313828	291.47360695861
17	46830	2995.959838911712	294.88571344215
17	46881	2998.02432163504	543.88976616229
17	46979	3003.052102540759	296.95455000259
17	46981	3003.121759723648	296.0769015227
17	46983	3003.139495579816	764.28684042374
17	46985	3003.258812991303	294.65409463407
17	47038	3005.966349306733	295.0278098407
17	47137	3013.171767047709	555.64474060506
17	47180	3015.513343320658	301.0864922945
17	47182	3015.647964033485	300.95410946888
17	47221	3018.197697604473	301.19144106891
17	47260	3020.609755775038	559.50036435354
17	47262	3020.740582009845	302.20150412668
17	47266	3020.98753845675	301.78037347604
17	47305	3023.26848650049	302.52096929956
17	47340	3025.973691009827	303.33540109769
17	47369	3028.0012742911	304.84033871566
17	47404	3030.905555626482	563.13891537585
17	47406	3030.967254917104	559.80681977765
17	47433	3033.039927031053	560.15670551275
17	47488	3035.651186760899	562.61411644373
17	47537	3038.067503506921	303.05980544006
17	47541	3038.365492741188	302.6957588753
17	47623	3043.355735829233	306.36024764432
17	47674	3045.706093497167	307.40101889068
17	47676	3045.872763420178	1201.5382572863
17	47709	3048.149452385608	308.3880433544
17	47711	3048.157307934682	308.18578190224
17	47758	3050.859574478938	308.91891489962
17	47799	3053.096192566215	309.13403204685
17	47844	3055.768438629887	574.89825634341
17	47846	3055.774070020943	309.24113723524
17	47848	3055.832833569292	308.48195936057
17	47850	3055.865101463869	307.38524610773
17	47891	3058.413156789743	309.27249421019
17	47893	3058.424028909217	573.42878514319
17	47965	3063.426407359353	576.86773168335
17	47996	3065.510584557587	577.23745517096
17	48000	3065.681986116454	307.60880267014
17	48093	3073.439515052853	312.38147837052
17	48169	3078.37724737258	580.52694078213
17	48212	3080.514131984813	314.92656067102
17	48245	3083.077707184462	315.3493012
17	48249	3083.228854058883	585.18227454874
17	48296	3085.667286302168	314.9546996803
17	48300	3085.816378959821	585.95187278077
17	48333	3088.426549043247	809.8241690884
17	48376	3090.588066027913	315.67484376523
17	48415	3093.002340668128	317.66450424226
17	48442	3095.923328477623	318.66360702835
17	48483	3098.043927019837	319.46863490068
17	48485	3098.114354324169	319.49786432093
17	48491	3098.382025980803	319.17857264166
17	48618	3105.748094796577	321.95168308894
17	48620	3105.804129150551	320.81451303058
17	48665	3108.370868409109	321.61724202667
17	48739	3113.308999388018	324.32111324866
17	48790	3115.885660986123	1038.721178962
17	48841	3118.106029155517	325.38993704883
17	48845	3118.309053557967	325.01021975292
17	48876	3120.568546230738	326.78430728537
17	48880	3120.688622841689	326.28497408014
17	48911	3123.080979573843	597.98320764526
17	48919	3123.463117896991	325.82094092909
17	48962	3125.635456006946	327.13723628039
17	48966	3125.831390634847	598.09773139198
17	48968	3125.869308792263	326.50589260516
17	48995	3128.039481635746	598.19599928037
17	48997	3128.039839537509	821.6194181689
17	49001	3128.144316435025	323.95699989935
17	49003	3128.387351045509	324.12221631287
17	49036	3130.602620911586	325.55271177197
17	49038	3130.733997564729	598.22889854268
17	49081	3133.166994640989	324.45132668219
17	49116	3135.883192402775	324.00470672664
17	49133	3138.242981629355	325.72183558934
17	49135	3138.460635636686	595.64258434325
17	49188	3140.684073575296	323.42579440394
17	49192	3140.864473284038	323.58386893043
17	49194	3140.898964524776	595.36710139843
17	49227	3143.301692979244	1238.6929191472
17	49231	3143.468473740795	317.78914093428
17	49280	3145.722870684793	317.42832103996
17	49282	3145.956160013541	594.72096886843
17	49286	3145.979775739617	317.17507147361
17	49331	3148.015058833258	316.33740728676
17	49335	3148.176262968975	594.32530254011
17	49337	3148.328399482243	314.29997795477
17	49380	3150.793298669071	315.59494884091
17	49386	3150.978899249119	315.40126961905
17	49429	3153.384863176937	814.74031075772
17	49466	3155.645644416013	594.09391669414
17	49507	3158.258477924778	318.43982376799
17	49509	3158.353299286086	318.07040053955
17	49573	3163.141087497628	822.65295658725
17	49620	3165.956964136845	321.81875269542
17	49651	3168.090991966213	323.66510928803
17	49653	3168.091695530592	323.50240104765
17	49655	3168.155950213077	1046.592160541
17	49657	3168.204506066585	321.99781153211
17	49690	3170.585080219867	322.12660490469
17	49698	3170.883994837569	601.80116250796
17	49741	3173.21413995079	323.04561958009
17	49743	3173.217034116528	601.70706651309
17	49774	3175.556806609916	323.97688504865
17	49776	3175.662434720127	323.4203356239
17	49782	3175.690073823285	322.5338877171
17	49788	3175.957569973828	598.59080729935
17	49829	3178.424232443171	323.89862069911
17	49831	3178.454849994343	322.49920820343
17	49864	3180.594598352417	323.88699398787
17	49872	3180.927000641035	597.23195561152
17	49956	3185.97827080699	324.82689022357
17	49991	3188.005673473749	326.16935403371
17	49993	3188.416576547916	326.49795117044
17	50030	3190.737249920216	325.19427020233
17	50110	3195.853231169647	326.63100514622
17	50112	3195.931855510913	326.19904976485
17	50151	3198.062514880373	326.86945047455
17	50153	3198.295843153414	326.79644886034
17	50155	3198.307811361335	604.9411126166
17	50340	3210.86937507167	613.02096275191
17	50420	3215.741300930651	333.61771154318
17	50422	3215.775730365379	333.40802470674
17	50492	3220.685746095235	336.23721366122
17	50535	3223.379865358463	338.51385088698
17	50537	3223.423669548822	860.06080805377
17	50578	3225.752103407066	857.36176587736
17	50617	3228.315699426505	337.94133925508
17	50648	3230.600312764913	338.55679362093
17	50650	3230.659167979593	337.89140683912
17	50654	3230.866179376396	861.71171058614
17	50658	3230.961196999343	614.34286241449
17	50699	3233.215791433349	334.76590880058
17	50701	3233.262026514725	614.02874104933
17	50703	3233.322164610547	334.30160812829
17	50705	3233.377700434834	333.10845804179
17	50707	3233.427944456171	1783.7277848546
17	50742	3235.593461045866	333.94202762682
17	50744	3235.840249552555	608.37624385171
17	50746	3235.951474282907	330.43038687548
17	50789	3238.372604567143	849.96405678542
17	50791	3238.496794879337	329.94084982191
17	50826	3240.681254145471	330.45853431727
17	50871	3243.319898755113	332.89907679241
17	50873	3243.414362365792	609.55835530972
17	50875	3243.49672632827	331.7771088562
17	50908	3245.528394607339	610.45910311088
17	50910	3245.644816294906	332.07856450554
17	50927	3248.074388067933	1074.0204026839
17	50968	3250.73004071516	333.56092870614
17	50972	3250.895540904234	612.41715111266
17	51005	3253.19354571301	332.35710369009
17	51050	3255.72793538464	334.13196837995
17	51145	3263.196806542162	340.08559551274
17	51147	3263.379670567356	620.55237243225
17	51178	3265.708910608769	341.32123529173
17	51219	3268.132669401139	340.62028800581
17	51223	3268.294303109568	1299.5023213608
17	51264	3270.905693623296	339.48271534118
17	51344	3275.806867933043	343.29860494813
17	51383	3278.163717363123	345.06065079451
17	51385	3278.170056509246	1092.1134493275
17	51387	3278.231255748311	344.3416186071
17	51391	3278.446669850561	343.28212535856
17	51420	3280.799625418012	344.61121696642
17	51453	3283.027859843339	624.37823948097
17	51455	3283.1134752143	870.31613636317
17	51465	3283.383760543377	341.92473026666
17	51467	3283.4500284732	341.67365070483
17	51541	3288.111740565273	343.41323064633
17	51570	3290.83895835843	624.78367290251
17	51572	3290.979501223185	344.79669613744
17	51599	3293.14829695342	1303.1066492589
17	51601	3293.235143758609	344.38190974015
17	51644	3295.629560329577	344.85782828528
17	51646	3295.736968688306	624.66538286874
17	51648	3295.816373826535	344.76249763048
17	51650	3295.934191631668	344.52711241929
17	51701	3298.158801372722	346.1857031108
17	51748	3300.588549474537	629.16169321878
17	51795	3303.420758525126	348.08587901894
17	51836	3305.757866137249	349.73053278097
17	51881	3308.013661413855	347.87226644212
17	51920	3310.509887457656	349.51822166377
17	51955	3313.209158466802	350.42825099129
17	51961	3313.332319351765	350.09506216581
17	51965	3313.455511683834	636.54581928915
17	52014	3315.567530232436	348.43723754404
17	52016	3315.891239938899	348.54188661
17	52018	3315.981575109301	348.0351483897
17	52051	3318.00529174283	348.26145093429
17	52059	3318.497018214097	885.5093689631
17	52096	3320.55131892308	636.54026034964
17	52098	3320.553150151878	345.63082739296
17	52155	3323.238295372147	1103.7196295809
17	52180	3325.681652386729	633.13333883558
17	52182	3325.839598576735	346.87855108127
17	52225	3328.455046872737	347.15332224242
17	52337	3333.045996208613	635.76554394943
17	52368	3335.662467743884	637.06709813267
17	52436	3340.761553716525	350.15443095922
17	52444	3340.995980163273	641.19504418935
17	52499	3343.125746100754	350.50259358961
17	52503	3343.3328545621	350.58906218013
17	52579	3348.100321526628	352.6102945959
17	52581	3348.19467900212	352.26701489262
17	52618	3350.503734027076	647.97442823751
17	52620	3350.543711799793	354.49325064722
17	52622	3350.735638841332	353.78163000565
17	52626	3350.83132775077	353.28875240293
17	52718	3355.660210471931	356.8833843062
17	52720	3355.705217235407	356.90318958995
17	52722	3355.749198845304	356.63439628408
17	52724	3355.811764584472	356.2299405002
17	52753	3358.214929352489	358.24613481839
17	52755	3358.350954031463	357.87356754416
17	52759	3358.434371322847	904.1822285488
17	52790	3360.69305505463	358.54174289628
17	52827	3363.007149653328	652.15785639849
17	52833	3363.417052676671	359.6990804028
17	52872	3365.730295164724	360.4732430453
17	52962	3370.619287663215	364.05089378298
17	52964	3370.750330204733	363.78872449436
17	52991	3373.009500417954	365.49683781487
17	53063	3378.005103185383	368.90570838
17	53102	3380.939704451116	666.98467996384
17	53119	3383.342872868583	368.46022294377
17	53174	3385.801106315483	1140.9110072486
17	53227	3388.073999693865	670.48820518717
17	53229	3388.088176082189	668.01866829587
17	53235	3388.334172187375	367.16038476745
17	53315	3393.010874765678	929.83456980878
17	53317	3393.220066419469	369.60031472307
17	53366	3395.580493487824	931.59321573993
17	53368	3395.603421789426	366.96333404418
17	53411	3398.321019991001	665.19546547269
17	53450	3400.550926292032	364.28512335853
17	53454	3400.929012765362	364.13758943224
17	53491	3403.020373458327	364.79335524612
17	53493	3403.104906566232	667.22539299664
17	53524	3405.635441330366	365.7240559378
17	53526	3405.683367862632	932.61972422483
17	53528	3405.812994574417	363.9788880257
17	53534	3405.992668250902	363.61755865199
17	53571	3408.429113117246	365.70190762233
17	53604	3410.98909505166	366.77851210277
17	53664	3415.601760559826	676.22837461307
17	53701	3418.119585512995	368.79565799243
17	53707	3418.353899449227	368.76803355307
17	53730	3420.538664145563	940.52324996418
17	53732	3420.542734113197	369.06897765751
17	53734	3420.72319029199	676.11206779555
17	53779	3423.300318132683	369.43985274788
17	53781	3423.340662504505	369.02217523331
17	53814	3425.614969993153	673.58561013427
17	53818	3425.805918876026	673.00585981157
17	53857	3428.008570405915	364.64412052351
17	53863	3428.320615743155	673.2339144249
17	53867	3428.435430709167	364.5015736508
17	53869	3428.493543318674	363.08704382792
17	53906	3430.672356579515	672.19677435995
17	53914	3430.887510873401	364.24866763826
17	53964	3435.527416090056	364.95772255435
17	53966	3435.555240967511	943.53312427999
17	53968	3435.709919260858	364.51428566964
17	53970	3435.720115843735	673.00354272511
17	53974	3435.787329940028	360.87513958376
17	53976	3435.858828469806	673.11713026859
17	53978	3435.919793884356	359.14495693845
17	54001	3438.058878146286	360.43946771941
17	54030	3440.783299387493	361.91549929253
17	54032	3440.957669302842	361.93586702677
17	54079	3443.047848859282	363.52925352458
17	54081	3443.169915649605	362.94672950844
17	54089	3443.333826579918	945.38792262042
17	54155	3448.071682919707	678.06756690925
17	54157	3448.147618641915	364.27865383847
17	54161	3448.300137304714	364.34138459495
17	54235	3453.047016240409	366.23867808052
17	54237	3453.082283211757	678.1856843999
17	54241	3453.173546904917	364.18406766432
17	54243	3453.227064049866	364.03300425674
17	54245	3453.377055613859	363.78591913373
17	54284	3455.666841225316	680.74879429697
17	54288	3455.820907813972	364.44363555776
17	54292	3455.980345841071	363.56455654456
17	54331	3458.364394969121	952.38377265367
17	54368	3460.504019636047	365.17111114511
17	54370	3460.990594241231	365.02529645072
17	54391	3463.457363404778	366.59740524483
17	54430	3465.878412686363	368.10666964891
17	54457	3468.120663197186	369.22757166116
17	54496	3470.782821982312	957.3675083217
17	54498	3470.794924670494	368.0660743251
17	54502	3470.92106719282	367.97874701836
17	54506	3470.977858925385	367.51296989808
17	54541	3473.04982255324	368.10091378783
17	54570	3475.504544760487	368.84973171074
17	54621	3478.096833006532	690.82596872439
17	54648	3480.676985389982	965.42843363231
17	54734	3485.676795288384	694.97900215561
17	54736	3485.783388622089	370.72998623814
17	54767	3488.005904020574	696.910912483
17	54769	3488.142493331725	371.64992483341
17	54806	3490.930974165004	373.27158234592
17	54903	3498.272065965822	703.86308491588
17	54926	3500.833944209559	378.55919520065
17	54930	3500.935008157866	377.99318077791
17	54965	3503.146713048563	705.46176110222
17	54967	3503.422377697853	379.37543221833
17	54998	3505.643904353389	380.73002545814
17	55047	3508.084742955537	381.05266610623
17	55049	3508.202170706087	380.74492802685
17	55051	3508.21421773967	703.59591189592
17	55053	3508.320484207808	379.64375916627
17	55092	3510.513125651945	975.05805867057
17	55100	3510.859919394152	378.46154183373
17	55102	3510.888821957174	1406.056123012
17	55104	3510.939952390893	377.37242880107
17	55242	3520.538025168415	384.29847856006
17	55281	3523.176903731785	979.70683764663
17	55326	3525.891676690651	387.10521760046
17	55367	3528.014648258838	388.05535283409
17	55371	3528.269863680786	387.98749229699
17	55412	3530.535490345041	982.86745509376
17	55422	3530.851373332582	388.07498777979
17	55469	3533.099370500302	388.82689976523
17	55473	3533.123070175161	979.74956579825
17	55475	3533.265113846002	387.26301570359
17	55522	3535.845589568945	385.49468200319
17	55524	3535.939825573344	700.06936528884
17	55559	3538.013098082739	700.71789052049
17	55563	3538.086663665772	699.37708500334
17	55565	3538.314486659084	381.24810044577
17	55602	3540.610589011929	382.47167105041
17	55604	3540.768146476711	978.56898158337
17	55643	3543.126015895247	701.07408823581
17	55645	3543.303307557538	381.81420751625
17	55647	3543.322113283305	381.25019921989
17	55684	3545.556057902183	382.76007938478
17	55686	3545.616471208341	382.54286924652
17	55688	3545.887671453722	702.19543054503
17	55719	3548.321154506022	383.58853775488
17	55762	3550.522616085554	385.0545929648
17	55764	3550.969711670642	385.22391639472
17	55797	3553.03996835792	704.74298786218
17	55801	3553.08995335975	383.96182364123
17	55805	3553.452484308803	383.027681726
17	55969	3563.014080908353	388.51600062503
17	55973	3563.158619663739	709.25301242528
17	55979	3563.486947999413	387.15595303102
17	56006	3565.528236946156	388.40586189734
17	56008	3565.619270794666	387.94096841527
17	56012	3565.756616940646	1217.7096353439
17	56016	3565.934520427713	385.07561073713
17	56051	3568.496219813349	386.65976502139
17	56088	3570.70388204293	986.05420314596
17	56094	3570.912766837756	385.3066965142
17	56131	3573.202210569543	711.65901561733
17	56133	3573.215534691097	387.16995770411
17	56205	3578.272287628655	390.90474695627
17	56207	3578.333979938096	993.0687715924
17	56285	3583.11307714804	994.6997559917
17	56287	3583.275879295314	1225.1938989856
17	56295	3583.489622810373	389.74484896678
17	56346	3585.600405970923	992.42140169307
17	56377	3588.021270716897	390.97500455425
17	56379	3588.054196037089	390.32162199958
17	56391	3588.449613539824	712.61248970354
17	56426	3590.605936646067	389.04558389688
17	56428	3590.669739769209	714.17951062304
17	56432	3590.705529366136	386.13929482779
17	56436	3590.717908961013	385.32855112693
17	56547	3598.34162868973	389.68385593465

