version 2
run Net1-0-20200114-19:24:19-2396
attr configname Net1
attr datetime 20200114-19:24:19
attr experiment Net1
attr inifile omnetpp.ini
attr iterationvars ""
attr iterationvarsf ""
attr measurement ""
attr network Net
attr processid 2396
attr repetition 0
attr replication #0
attr resultdir results
attr runnumber 0
attr seedset 0
param **.gen.interArrivalTime1 exponential(0.8s)
param **.gen.interArrivalTime2 exponential(0.9s)
param **.gen.interArrivalTime3 exponential(0.7s)
param **.gen.interArrivalTime4 exponential(0.6s)
param **.gen.interArrivalTime5 exponential(0.5s)
param **.sys.serviceTime1 exponential(0.3s)
param **.sys.serviceTime2 exponential(0.4s)
param **.sys.serviceTime3 exponential(0.5s)
param **.sys.serviceTime4 exponential(0.6s)
param **.sys.serviceTime5 exponential(0.7s)
param **.sys.timeSlot 0.5s
param **.gen.numberofpriority 5
param **.sys.numberofpriority 5

vector 0 Net.sys busy:vector ETV
attr interpolationmode sample-hold
attr title "server busy state, vector"
vector 1 Net.sys qlen1:vector ETV
attr interpolationmode sample-hold
attr title "queue length, vector"
vector 2 Net.sys responseTime3:vector ETV
attr interpolationmode none
attr title "response time at end of service, vector"
attr unit s
vector 3 Net.sys queueingTime1:vector ETV
attr interpolationmode none
attr title "queueing time at dequeue, vector"
attr unit s
vector 4 Net.sink lifetime:vector ETV
attr interpolationmode none
attr title "lifetime of arrived msg, vector"
attr unit s
vector 5 Net.sink arrivedMsg:vector ETV
attr interpolationmode none
attr title "number of arrived msg, vector"
vector 6 Net.sys qlen0:vector ETV
attr interpolationmode sample-hold
attr title "queue length, vector"
vector 7 Net.sys responseTime2:vector ETV
attr interpolationmode none
attr title "response time at end of service, vector"
attr unit s
vector 8 Net.sys responseTime0:vector ETV
attr interpolationmode none
attr title "response time at end of service, vector"
attr unit s
vector 9 Net.sys queueingTime0:vector ETV
attr interpolationmode none
attr title "queueing time at dequeue, vector"
attr unit s
vector 10 Net.sys responseTime1:vector ETV
attr interpolationmode none
attr title "response time at end of service, vector"
attr unit s
vector 11 Net.sys qlen2:vector ETV
attr interpolationmode sample-hold
attr title "queue length, vector"
vector 12 Net.sys qlen4:vector ETV
attr interpolationmode sample-hold
attr title "queue length, vector"
vector 13 Net.sys queueingTime4:vector ETV
attr interpolationmode none
attr title "queueing time at dequeue, vector"
attr unit s
vector 14 Net.sys responseTime4:vector ETV
attr interpolationmode none
attr title "response time at end of service, vector"
attr unit s
vector 15 Net.sys queueingTime2:vector ETV
attr interpolationmode none
attr title "queueing time at dequeue, vector"
attr unit s
vector 16 Net.sys qlen3:vector ETV
attr interpolationmode sample-hold
attr title "queue length, vector"
vector 17 Net.sys queueingTime3:vector ETV
attr interpolationmode none
attr title "queueing time at dequeue, vector"
attr unit s
0	0	0	0
0	2	0	1
0	7	1.03913623309	0
0	9	1.607862384982	1
0	12	2.583635052924	0
0	15	2.883879488998	1
0	16	3.214508581	0
0	19	4.01125792152	1
0	24	4.698451839588	0
0	27	4.792863062635	1
0	32	5.68227283145	0
0	35	6.809031696188	1
0	40	7.457084981943	0
0	43	8.193779505282	1
0	44	8.570116561938	0
0	47	9.364327345509	1
0	50	9.865593205887	0
0	53	9.887433399286	1
0	54	11.153291884278	0
0	57	11.18656044221	1
0	68	12.123334171378	0
0	70	12.148506585647	1
0	71	12.750820289102	0
0	74	14.983659521455	1
0	77	16.003816650426	0
0	80	16.926324113341	1
0	84	18.183007782412	0
0	86	20.387023795569	1
0	89	20.828002448283	0
0	92	21.819956653138	1
0	93	21.908068739745	0
0	96	22.387926123993	1
0	103	23.324935379435	0
0	106	23.897253242324	1
0	107	24.607935582371	0
0	110	25.923347576915	1
0	113	26.151184989363	0
0	116	26.366043951969	1
0	119	26.62278576906	0
0	122	26.815230243391	1
0	123	27.215817298778	0
0	126	28.005834103992	1
0	127	28.176668047508	0
0	130	28.310375315584	1
0	131	28.38301432923	0
0	134	28.898609609513	1
0	137	29.094495014851	0
0	140	29.488716171393	1
0	149	30.444748075	0
0	152	32.911646074139	1
0	153	33.369701656019	0
0	156	35.007668110932	1
0	168	36.216442630648	0
0	171	36.43102124775	1
0	172	36.87058623477	0
0	175	39.581213563759	1
0	193	41.425644735811	0
0	196	41.508708562903	1
0	204	42.80912566523	0
0	206	44.856948905431	1
0	213	45.350444888942	0
0	216	45.971107266005	1
0	222	47.259580128455	0
0	225	50.795197581224	1
0	243	52.414023125809	0
0	246	52.839174485036	1
0	250	53.726848434406	0
0	253	54.044482751654	1
0	256	54.566048080341	0
0	259	54.913498256357	1
0	264	56.096069610266	0
0	266	56.238443940618	1
0	271	58.167879289556	0
0	273	59.328600406064	1
0	292	61.073325047671	0
0	295	63.70797694049	1
0	317	65.399046490565	0
0	319	65.98608886238	1
0	342	69.163046201911	0
0	345	69.190433183287	1
0	365	71.885068561512	0
0	368	72.037860263752	1
0	373	72.415147566578	0
0	376	73.643277195961	1
0	385	74.232876142985	0
0	388	75.063974248648	1
0	391	75.700112943942	0
0	393	76.259856335023	1
0	394	76.374264724026	0
0	397	76.770970073155	1
0	402	77.624017053929	0
0	405	77.924777713195	1
0	408	78.679543956664	0
0	410	79.735764573884	1
0	413	80.402216643426	0
0	416	81.463841396639	1
0	419	82.117605510275	0
0	422	82.147606174759	1
0	427	84.155578119534	0
0	430	84.541042801181	1
0	437	85.734250452987	0
0	440	85.964802437655	1
0	447	87.292569325374	0
0	450	87.563062261124	1
0	451	88.908810442344	0
0	454	89.484409666109	1
0	457	90.339554230284	0
0	459	90.545854306389	1
0	462	91.254594144659	0
0	464	91.408122213698	1
0	465	91.512945110368	0
0	468	94.22104373559	1
0	471	94.697666049961	0
0	474	95.150561045171	1
0	477	95.881155205119	0
0	480	95.922123897566	1
0	485	96.366713298508	0
0	488	96.740799154807	1
0	491	97.013998386931	0
0	494	97.604255313732	1
0	499	98.669890601824	0
0	502	99.09075444291	1
0	507	99.384072337655	0
0	510	100.565967766375	1
0	517	101.48791200267	0
0	519	101.749435694159	1
0	522	102.183300473818	0
0	525	102.432699482673	1
0	526	103.171794208735	0
0	529	104.168967222314	1
0	538	104.951272472874	0
0	540	105.072800614802	1
0	546	106.067060502271	0
0	549	108.858221768173	1
0	552	109.589244826037	0
0	554	110.170939830514	1
0	567	111.755137622206	0
0	569	112.202811073971	1
0	582	114.2706211782	0
0	585	114.792427558137	1
0	606	117.659458781312	0
0	608	117.963854261536	1
0	618	119.190361784422	0
0	621	119.361939677714	1
0	629	120.560842599901	0
0	631	121.216919973666	1
0	649	123.523839621227	0
0	652	123.712136827084	1
0	664	124.57764093806	0
0	667	125.426276789201	1
0	677	128.00560810673	0
0	679	129.163563950345	1
0	684	129.392197043524	0
0	687	129.890419118443	1
0	694	130.913711232611	0
0	696	131.939832155744	1
0	703	132.912944812853	0
0	706	133.662200289603	1
0	712	135.118759368623	0
0	715	135.464972127666	1
0	718	135.865192350417	0
0	721	135.949760159706	1
0	733	137.077623064011	0
0	736	137.309756277536	1
0	747	138.957640823751	0
0	750	139.12420943754	1
0	790	144.713274802215	0
0	793	144.794304217436	1
0	794	144.976954091557	0
0	797	144.98989703507	1
0	815	147.481207425242	0
0	818	148.187548811687	1
0	831	149.961213100027	0
0	834	150.724823671877	1
0	837	151.057326169306	0
0	840	151.876400129905	1
0	845	153.384870466295	0
0	848	153.825587442692	1
0	849	154.023738366617	0
0	852	154.756078069432	1
0	864	156.974662190586	0
0	866	157.045753968727	1
0	943	165.435083459086	0
0	946	165.990430599229	1
0	961	168.124183863735	0
0	964	168.412383521087	1
0	1005	173.355446865741	0
0	1008	173.979671470879	1
0	1122	190.903482847911	0
0	1125	191.082517994273	1
0	1137	192.168904262122	0
0	1140	192.894157734941	1
0	1152	194.754941729242	0
0	1155	194.80754130736	1
0	1163	195.875733526643	0
0	1166	196.737488225422	1
0	1175	198.016744538582	0
0	1177	198.468784191634	1
0	1189	200.271221486701	0
0	1192	200.298163531121	1
0	1201	201.084087685109	0
0	1204	201.170612490126	1
0	1205	201.353331826723	0
0	1208	201.6613637618	1
0	1211	202.35120859445	0
0	1214	202.399225562384	1
0	1223	203.762923807086	0
0	1226	205.287074362862	1
0	1231	205.821614906432	0
0	1234	206.319249433041	1
0	1244	208.056181999427	0
0	1247	208.277346380068	1
0	1248	208.367443904154	0
0	1251	209.192298876537	1
0	1267	210.334677647882	0
0	1270	211.474893747473	1
0	1309	215.931359706206	0
0	1311	216.352077896887	1
0	1323	217.551739215915	0
0	1326	218.022810023475	1
0	1339	218.670676373197	0
0	1342	221.160679346467	1
0	1345	221.734095587133	0
0	1348	223.035271290541	1
0	1354	223.901144609153	0
0	1357	224.792841022513	1
0	1369	226.750846779171	0
0	1371	226.837645936743	1
0	1374	227.639218222907	0
0	1377	227.657530523206	1
0	1392	229.280717551926	0
0	1395	230.414177720336	1
0	1404	232.11624467854	0
0	1407	233.481805887433	1
0	1417	235.096436452092	0
0	1420	235.406810234618	1
0	1423	236.041387542983	0
0	1426	237.833964292536	1
0	1433	239.468329056033	0
0	1435	242.445177258684	1
0	1436	242.47182697348	0
0	1439	243.797365222491	1
0	1452	245.212727701295	0
0	1454	246.872047934283	1
0	1500	251.766303761722	0
0	1503	253.334582719043	1
0	1516	254.086857677565	0
0	1519	255.357382286247	1
0	1535	256.559048847415	0
0	1538	256.683974475424	1
0	1557	258.355979728081	0
0	1559	258.371957708254	1
0	1577	262.116727306361	0
0	1580	262.664944967665	1
0	1604	266.941065882659	0
0	1607	266.979745837385	1
0	1616	268.515157772101	0
0	1619	268.569457846575	1
0	1630	270.30725688379	0
0	1633	270.440138513023	1
0	1651	273.08961814491	0
0	1654	273.56686453654	1
0	1666	276.284688438467	0
0	1668	277.120655032783	1
0	1673	277.944315304495	0
0	1675	278.257508616127	1
0	1687	279.526871101507	0
0	1690	281.242872141475	1
0	1705	283.622592850616	0
0	1707	283.626707801372	1
0	1725	285.310753613313	0
0	1727	285.689370069061	1
0	1737	286.995622263785	0
0	1740	287.143815779877	1
0	1754	289.363908888834	0
0	1756	289.898202402024	1
0	1757	290.155549503487	0
0	1760	291.588349440003	1
0	1766	292.692513416016	0
0	1768	292.699836245562	1
0	1812	299.330381721041	0
0	1815	301.947814767045	1
0	1847	306.589312160463	0
0	1849	307.008856314534	1
0	1850	307.139023001399	0
0	1853	307.343310493879	1
0	1863	308.816507105362	0
0	1866	308.851198765475	1
0	1876	311.778835254934	0
0	1878	312.124528813902	1
0	1889	313.267163521084	0
0	1892	313.458733955077	1
0	1893	313.997713484553	0
0	1896	314.101904723717	1
0	1908	315.821823632873	0
0	1910	315.884471616469	1
0	1911	316.009899114152	0
0	1914	316.78883737512	1
0	1924	318.268868320049	0
0	1927	318.664784524068	1
0	1948	320.913333021475	0
0	1950	321.025363200162	1
0	1951	321.294215981187	0
0	1954	322.55684909629	1
0	1965	323.252577395007	0
0	1968	323.39418991119	1
0	1976	324.810081942052	0
0	1979	324.813964069498	1
0	1980	324.90003786632	0
0	1983	325.400999137895	1
0	1998	327.090806046739	0
0	2001	328.794789670378	1
0	2011	330.56597890828	0
0	2013	331.214807112841	1
0	2018	332.938658101425	0
0	2021	333.418873605075	1
0	2035	335.593176201713	0
0	2037	336.091937218481	1
0	2060	338.83825667448	0
0	2062	338.882738393733	1
0	2065	339.974095338376	0
0	2068	340.874155078104	1
0	2075	342.004087872252	0
0	2078	342.358963197896	1
0	2079	342.594968132534	0
0	2082	345.512130145597	1
0	2093	347.230859960725	0
0	2095	347.524913545324	1
0	2098	348.295293333935	0
0	2101	348.427147328622	1
0	2107	349.555036008943	0
0	2109	349.844229984078	1
0	2110	349.85890961219	0
0	2113	349.955298508435	1
0	2124	351.00604825743	0
0	2126	352.481695448424	1
0	2154	356.248568443179	0
0	2156	356.281826412604	1
0	2189	361.1822337107	0
0	2191	361.515609301656	1
0	2221	365.252008721101	0
0	2224	365.287330526081	1
0	2249	368.692053540443	0
0	2252	368.833667677141	1
0	2264	370.116801602983	0
0	2267	370.181520191065	1
0	2279	372.122296654005	0
0	2282	372.218345048627	1
0	2285	375.111732429746	0
0	2288	375.593159850004	1
0	2296	377.890392858353	0
0	2298	378.116553176548	1
0	2361	385.937838663711	0
0	2364	386.729336700872	1
0	2388	390.762843509504	0
0	2391	391.41866770061	1
0	2428	396.090448716521	0
0	2430	397.510490462679	1
0	2431	397.55261623036	0
0	2434	398.006514616162	1
0	2441	398.659300185344	0
0	2444	399.368563824908	1
0	2445	399.575430595736	0
0	2448	399.920234366722	1
0	2460	400.985077317806	0
0	2463	402.051361937961	1
0	2479	403.636959693958	0
0	2482	403.974174351318	1
0	2494	406.625165684501	0
0	2497	406.809142878579	1
0	2512	408.57681596212	0
0	2515	409.300012202158	1
0	2536	412.153027769255	0
0	2538	413.319630453123	1
0	2548	414.411736251017	0
0	2551	414.618054199976	1
0	2561	416.426234861344	0
0	2563	419.6609879894	1
0	2564	419.836529660217	0
0	2567	419.85126704688	1
0	2586	422.373408497109	0
0	2589	422.720234462379	1
0	2602	423.089496119923	0
0	2605	423.14630824627	1
0	2620	424.313775441279	0
0	2622	424.789501330281	1
0	2623	425.234945552495	0
0	2626	426.726570647436	1
0	2632	427.91387138919	0
0	2635	428.240254107344	1
0	2638	428.739461399857	0
0	2641	428.837786757942	1
0	2652	429.884208339489	0
0	2655	430.413527831895	1
0	2672	432.272299556663	0
0	2674	434.003066157964	1
0	2726	439.557704876478	0
0	2729	439.686743060026	1
0	2811	451.125346712288	0
0	2813	451.788803355973	1
0	2823	454.844936564816	0
0	2825	456.609546476377	1
0	2916	466.74379919776	0
0	2918	468.187466694221	1
0	2996	477.471957743771	0
0	2998	477.623500596914	1
0	3014	479.743444830065	0
0	3017	479.900085189437	1
0	3030	480.386505709295	0
0	3033	480.643406185463	1
0	3039	481.82936692803	0
0	3041	481.990435027954	1
0	3042	482.802440249852	0
0	3045	482.867589693753	1
0	3057	484.058930281994	0
0	3060	484.677154652103	1
0	3066	486.005666192423	0
0	3069	486.411728699631	1
0	3070	486.447146131345	0
0	3073	486.803374871956	1
0	3080	487.558158423338	0
0	3083	488.281471649462	1
0	3084	489.03474205236	0
0	3087	489.125629976628	1
0	3126	494.517814123256	0
0	3129	496.59081380754	1
0	3130	496.592363693371	0
0	3133	498.237286749663	1
0	3148	500.506540269012	0
0	3150	500.988920358637	1
0	3160	502.082328793687	0
0	3163	502.194261413444	1
0	3175	503.991788680917	0
0	3178	504.051231902803	1
0	3183	504.704325963081	0
0	3186	507.023197460011	1
0	3187	507.09051962107	0
0	3190	507.260755107036	1
0	3191	507.565468908953	0
0	3194	508.915124959162	1
0	3201	510.183837622338	0
0	3204	510.696711762081	1
0	3205	510.924926742631	0
0	3208	511.683975783472	1
0	3209	511.841945900309	0
0	3212	512.480670943658	1
0	3217	513.146318550155	0
0	3220	513.807545653182	1
0	3221	514.204818461864	0
0	3224	514.603336709721	1
0	3227	514.912841830071	0
0	3230	515.04159666827	1
0	3240	517.682217435097	0
0	3243	517.951161572372	1
0	3253	519.46839854875	0
0	3255	520.01062505459	1
0	3281	524.182996689798	0
0	3284	524.390547090404	1
0	3301	526.817687544043	0
0	3304	526.939575940037	1
0	3322	529.785579190592	0
0	3324	529.811621614305	1
0	3381	538.358739021853	0
0	3384	539.498978512127	1
0	3399	541.418848076697	0
0	3402	542.116522521598	1
0	3410	543.332012408236	0
0	3412	543.801361629349	1
0	3413	543.882908685053	0
0	3416	543.996927143427	1
0	3423	545.068505490895	0
0	3426	545.631138898873	1
0	3427	545.704683581904	0
0	3430	546.281161903462	1
0	3440	547.654641322005	0
0	3443	549.183931458483	1
0	3454	551.168744556441	0
0	3457	551.209826904211	1
0	3466	552.182516108713	0
0	3469	552.404580799014	1
0	3477	553.81958456508	0
0	3480	554.347381673139	1
0	3481	554.593045260741	0
0	3484	554.646354963466	1
0	3494	556.473265599441	0
0	3497	556.859796532567	1
0	3506	560.068058396232	0
0	3508	560.822455387559	1
0	3517	561.471885862774	0
0	3520	562.065773748207	1
0	3525	563.126564527006	0
0	3527	563.564318251005	1
0	3545	565.78614060692	0
0	3548	566.500166585223	1
0	3558	567.882469807499	0
0	3561	568.60003489353	1
0	3564	568.764365922365	0
0	3567	569.706918588309	1
0	3576	571.323073242853	0
0	3578	573.623724612235	1
0	3590	575.461704694757	0
0	3593	580.883582979592	1
0	3603	582.304898294215	0
0	3605	582.343763044863	1
0	3606	582.349601348422	0
0	3609	583.872233795398	1
0	3616	585.430872112418	0
0	3618	586.149055264504	1
0	3631	588.537783134038	0
0	3634	588.644451352054	1
0	3647	589.533012562018	0
0	3650	589.65942741783	1
0	3655	590.847185096849	0
0	3657	591.173500481086	1
0	3660	591.30260811603	0
0	3663	591.40921011261	1
0	3664	591.438303595768	0
0	3667	591.770933112643	1
0	3670	592.358091829532	0
0	3673	593.164577428986	1
0	3679	594.955955450075	0
0	3681	595.433783948279	1
0	3714	598.022928419392	0
0	3716	598.362845248067	1
0	3724	599.431064065119	0
0	3726	599.614935905982	1
0	3742	601.257102670213	0
0	3745	601.257751047659	1
0	3756	602.944550815301	0
0	3758	603.292909187647	1
0	3783	606.408952365899	0
0	3785	606.494003222144	1
0	3797	607.647366943454	0
0	3799	607.827120870527	1
0	3810	609.084902955479	0
0	3812	609.186636663852	1
0	3833	611.0952269056	0
0	3836	611.748977594684	1
0	3841	612.059926847923	0
0	3844	612.272268279196	1
0	3852	613.434015972281	0
0	3855	613.508424330561	1
0	3858	613.751946640834	0
0	3861	616.640812608889	1
0	3904	621.210530263604	0
0	3906	621.778061429904	1
0	3919	622.934695079721	0
0	3921	623.177471045092	1
0	3925	624.704138851863	0
0	3927	625.534565863629	1
0	3930	625.550367906828	0
0	3933	625.650000592788	1
0	3938	627.245243848983	0
0	3941	627.336127511276	1
0	3946	627.918395159261	0
0	3948	628.579186543731	1
0	3957	629.351359503648	0
0	3959	631.491289365292	1
0	3971	632.932129488365	0
0	3974	634.165022231873	1
0	3983	635.906054516253	0
0	3985	639.656322747676	1
0	4011	642.887430377436	0
0	4014	644.969053363423	1
0	4022	646.083678300979	0
0	4025	646.483162602762	1
0	4030	647.348656435611	0
0	4032	648.544676714889	1
0	4035	648.954004945847	0
0	4038	649.022008048995	1
0	4048	649.977234610257	0
0	4051	650.692233475551	1
0	4052	651.529940454569	0
0	4055	652.277235664815	1
0	4058	653.223017569865	0
0	4060	655.642816961048	1
0	4063	656.581937184757	0
0	4065	656.934378652832	1
0	4076	657.950262215242	0
0	4079	658.255507446755	1
0	4084	658.790898016116	0
0	4087	660.288330268515	1
0	4095	661.219623786093	0
0	4098	661.313539710994	1
0	4108	662.363732508788	0
0	4111	664.418938914858	1
0	4112	664.529031378223	0
0	4115	665.774780054495	1
0	4131	668.547619829879	0
0	4134	669.210387710623	1
0	4139	670.936048503412	0
0	4141	673.558517774094	1
0	4142	673.627012669871	0
0	4145	673.784037030869	1
0	4153	674.877884761111	0
0	4156	675.395595674222	1
0	4167	677.926378253157	0
0	4170	678.118897043853	1
0	4198	681.423775348478	0
0	4201	681.676706913819	1
0	4210	682.18340003049	0
0	4213	682.319012333396	1
0	4234	684.344219622756	0
0	4236	684.926735687473	1
0	4244	686.895513074708	0
0	4247	687.568523461959	1
0	4255	689.152624925754	0
0	4257	691.090854974696	1
0	4270	692.889333300367	0
0	4272	693.615092509709	1
0	4283	694.222676582258	0
0	4285	695.272221333083	1
0	4295	696.92592755602	0
0	4298	697.172332928799	1
0	4310	698.866457226669	0
0	4312	698.867470676718	1
0	4319	700.084538473569	0
0	4321	700.446322539404	1
0	4331	702.388613866865	0
0	4333	702.975581213733	1
0	4347	705.724925327036	0
0	4349	706.085886351493	1
0	4384	711.650851371551	0
0	4386	711.855435675973	1
0	4416	715.413992089357	0
0	4419	715.793582943558	1
0	4428	717.807309876531	0
0	4430	717.847082826538	1
0	4454	720.428399561109	0
0	4457	721.297531917173	1
0	4513	728.749285984676	0
0	4516	728.780774238694	1
0	4519	729.175369691818	0
0	4522	729.506046371927	1
0	4530	730.380088742221	0
0	4533	730.915619657679	1
0	4548	732.188137524818	0
0	4550	732.545574144176	1
0	4560	733.68477980018	0
0	4563	733.915416266467	1
0	4600	740.698049287699	0
0	4603	740.840870208046	1
0	4606	741.495445983661	0
0	4608	741.669210871623	1
0	4613	741.940337029251	0
0	4616	742.662428952258	1
0	4617	742.908810976981	0
0	4620	747.113637877029	1
0	4628	749.539838004711	0
0	4630	750.080575330476	1
0	4638	751.498879378948	0
0	4641	751.860363075551	1
0	4648	753.278257410847	0
0	4651	754.140644966121	1
0	4665	755.960125714021	0
0	4668	756.066401714487	1
0	4671	756.312283138201	0
0	4674	757.486404762235	1
0	4683	758.793124215292	0
0	4685	759.082063299854	1
0	4710	761.123488856766	0
0	4713	762.68660365522	1
0	4729	764.115560527702	0
0	4732	764.862273215721	1
0	4783	771.558535730603	0
0	4786	773.123205545321	1
0	4799	774.828735394168	0
0	4802	775.029879525085	1
0	4816	776.416426897246	0
0	4818	777.430702776044	1
0	4819	777.90280583129	0
0	4822	780.149466269086	1
0	4833	781.671924687118	0
0	4836	781.90299207271	1
0	4851	784.954113850406	0
0	4854	785.405998153836	1
0	4883	788.539117648326	0
0	4886	789.079825457745	1
0	4901	790.935877482192	0
0	4904	791.750942977161	1
0	4915	792.834065772291	0
0	4917	792.853719294146	1
0	4933	794.782031895983	0
0	4936	795.105079951782	1
0	4954	797.594277495449	0
0	4957	797.736703139223	1
0	4975	799.432902786703	0
0	4978	800.228531622834	1
0	4983	801.164622651838	0
0	4985	801.570805853781	1
0	4988	802.205008131621	0
0	4991	804.57548046748	1
0	4998	805.842717094385	0
0	5000	806.811471490638	1
0	5013	810.013532765355	0
0	5015	810.600853583934	1
0	5028	812.735490390453	0
0	5031	813.170243692609	1
0	5032	813.876126143516	0
0	5035	814.578709371637	1
0	5042	815.531953523647	0
0	5045	816.153126152876	1
0	5052	817.149425060648	0
0	5055	817.546412869527	1
0	5064	818.593015294478	0
0	5067	818.814073342338	1
0	5068	819.163045971307	0
0	5071	819.344371383079	1
0	5096	822.242089494245	0
0	5098	822.938389619833	1
0	5099	823.073392711893	0
0	5102	823.282880468537	1
0	5111	826.174416764595	0
0	5113	826.537525850363	1
0	5137	829.770969218785	0
0	5139	829.907072333185	1
0	5151	833.384918681738	0
0	5154	833.41459727109	1
0	5239	843.459762062427	0
0	5242	844.482045727158	1
0	5367	860.335958295886	0
0	5370	860.695085809243	1
0	5460	870.526848474788	0
0	5462	871.149491139802	1
0	5473	871.519915261308	0
0	5476	873.064829768733	1
0	5485	873.990928965056	0
0	5488	874.573016291212	1
0	5491	874.981682542418	0
0	5494	877.002201223416	1
0	5495	877.075344101097	0
0	5498	878.594498209678	1
0	5504	879.611325055345	0
0	5506	879.765038118258	1
0	5507	880.945724842991	0
0	5510	881.136857767067	1
0	5513	881.75869603866	0
0	5516	883.414895820954	1
0	5530	885.050780068081	0
0	5533	885.146157054096	1
0	5536	885.412595652078	0
0	5539	885.502559304558	1
0	5550	887.294139749239	0
0	5553	889.207800102988	1
0	5564	891.372885795731	0
0	5567	891.432019764027	1
0	5580	893.805335099207	0
0	5583	894.845852599886	1
0	5623	901.803702117345	0
0	5626	902.309911191338	1
0	5637	903.375352614275	0
0	5640	903.745428837274	1
0	5643	904.192296351776	0
0	5646	904.20458206922	1
0	5652	905.352576303623	0
0	5655	905.625296955625	1
0	5660	906.46633642642	0
0	5663	907.540095960125	1
0	5671	909.225850495261	0
0	5673	910.077110021609	1
0	5674	910.259956638117	0
0	5677	910.5052819106	1
0	5687	911.622110434173	0
0	5689	911.922619373042	1
0	5704	914.810158267648	0
0	5707	915.015270046429	1
0	5722	916.129769253066	0
0	5725	916.265220823542	1
0	5744	919.133603459717	0
0	5746	919.233542278567	1
0	5770	922.186686703462	0
0	5772	922.387405728126	1
0	5787	924.893921430236	0
0	5789	925.650312786958	1
0	5800	926.428494987668	0
0	5803	932.136998069807	1
0	5837	935.518323106467	0
0	5839	935.756603610547	1
0	5847	936.806392413431	0
0	5850	937.313577763157	1
0	5861	938.935118690596	0
0	5864	939.016025502191	1
0	5875	940.426288698582	0
0	5877	940.646967044941	1
0	5895	943.106956651761	0
0	5898	943.664249558527	1
0	5910	945.114211343481	0
0	5913	945.990455278949	1
0	5939	949.560271172544	0
0	5941	951.43407521523	1
0	5942	951.746444807906	0
0	5945	952.412597127392	1
0	5955	953.929552897341	0
0	5957	954.06145017602	1
0	5966	954.342138164328	0
0	5969	955.452514481416	1
0	5998	959.137299888264	0
0	6000	959.153795894133	1
0	6009	960.874997523809	0
0	6012	961.265358256119	1
0	6026	962.888519508856	0
0	6029	965.505421236628	1
0	6040	967.170407872203	0
0	6042	967.288875314007	1
0	6117	979.430368677688	0
0	6120	979.526443456337	1
0	6134	980.96708327853	0
0	6137	981.376781257001	1
0	6174	985.179051564194	0
0	6177	985.432241140949	1
0	6195	986.967704791666	0
0	6198	987.679768532998	1
0	6212	989.844267523735	0
0	6215	990.568754446342	1
0	6225	991.83767618624	0
0	6228	992.073472834488	1
0	6235	993.464545189377	0
0	6238	993.954488873029	1
0	6239	994.085531078867	0
0	6242	994.259935099123	1
0	6258	995.481735511151	0
0	6261	996.477012798177	1
0	6288	1000.126542657126	0
0	6290	1001.941051112298	1
0	6298	1002.985436749992	0
0	6301	1003.083201843667	1
0	6308	1003.682753967276	0
0	6311	1004.259008084247	1
0	6314	1004.410701892056	0
0	6317	1004.623663771912	1
0	6334	1005.947661194969	0
0	6337	1006.012682186042	1
0	6350	1007.719261235419	0
0	6352	1008.157012013376	1
0	6353	1008.87673448296	0
0	6356	1009.090630194434	1
0	6374	1010.902572819454	0
0	6376	1011.428659143504	1
0	6428	1016.247777757095	0
0	6431	1017.136288476253	1
0	6442	1017.720814028559	0
0	6444	1018.483068193689	1
0	6447	1019.162225600254	0
0	6449	1020.670406825868	1
0	6456	1022.259543953682	0
0	6459	1023.293452575845	1
0	6468	1024.833989005887	0
0	6470	1025.203290492903	1
0	6483	1026.51270738184	0
0	6486	1026.796570072482	1
0	6506	1029.503801995498	0
0	6508	1032.345918588938	1
0	6532	1035.516628253715	0
0	6535	1035.6466706666	1
0	6544	1037.81643615956	0
0	6547	1038.217320398878	1
0	6555	1040.513781886764	0
0	6557	1040.600483218545	1
0	6567	1041.748291210475	0
0	6570	1043.075299947503	1
0	6578	1044.198798849156	0
0	6581	1044.538430906962	1
0	6582	1044.543189926417	0
0	6585	1045.234373874174	1
0	6596	1046.751413330563	0
0	6598	1046.821905510188	1
0	6599	1046.920477229861	0
0	6602	1047.559251751798	1
0	6611	1049.634451089428	0
0	6613	1051.781999207688	1
0	6621	1055.370378544917	0
0	6623	1055.389954213825	1
0	6641	1058.198456493339	0
0	6644	1060.581608319217	1
0	6652	1061.824821872725	0
0	6654	1062.278843149415	1
0	6659	1063.985176553964	0
0	6662	1064.188337072956	1
0	6761	1074.643763326499	0
0	6764	1075.396095187981	1
0	6854	1087.230526347352	0
0	6856	1087.64797094473	1
0	6876	1089.99023506489	0
0	6879	1090.256672296712	1
0	6894	1092.36722597812	0
0	6896	1093.069740487592	1
0	6909	1094.450879040542	0
0	6911	1094.760196845273	1
0	6921	1096.776201207474	0
0	6923	1097.434705949525	1
0	6953	1101.11223007755	0
0	6956	1101.402468889426	1
0	6970	1103.122599293626	0
0	6972	1103.214531632938	1
0	6984	1104.669449489144	0
0	6987	1104.871733317451	1
0	7009	1107.831650978831	0
0	7012	1108.809956076274	1
0	7021	1110.41282397485	0
0	7023	1110.770044874845	1
0	7041	1112.434351825703	0
0	7044	1112.876984624453	1
0	7060	1114.526105940796	0
0	7063	1114.760534531199	1
0	7067	1116.237482484869	0
0	7069	1116.340143002287	1
0	7070	1116.39254186043	0
0	7073	1116.890638637841	1
0	7076	1117.413796658189	0
0	7079	1117.457200986263	1
0	7084	1117.729690188447	0
0	7087	1118.302560098661	1
0	7101	1119.710882067957	0
0	7104	1120.583505690245	1
0	7114	1122.812186269539	0
0	7116	1124.052879535901	1
0	7121	1124.599124358019	0
0	7123	1124.618741333259	1
0	7134	1126.084757253872	0
0	7137	1126.428797078769	1
0	7143	1127.700599629049	0
0	7145	1128.174066721879	1
0	7150	1128.78321342544	0
0	7152	1129.039983044952	1
0	7183	1133.46221254013	0
0	7186	1134.102735789292	1
0	7191	1134.849204849152	0
0	7194	1136.209293660389	1
0	7197	1136.764498778139	0
0	7200	1139.747153003647	1
0	7205	1140.731624691804	0
0	7208	1140.825095310914	1
0	7209	1141.358360242531	0
0	7212	1143.099396323515	1
0	7213	1143.120904679607	0
0	7216	1144.120755598073	1
0	7228	1146.229970208937	0
0	7231	1147.435703644124	1
0	7248	1149.210103860684	0
0	7251	1150.04252040855	1
0	7252	1150.059346029838	0
0	7255	1150.160653007582	1
0	7260	1151.222149548109	0
0	7263	1151.253398702163	1
0	7264	1152.35013707209	0
0	7267	1152.797332115061	1
0	7272	1153.435959039212	0
0	7275	1153.518034776986	1
0	7289	1155.640450369032	0
0	7291	1155.787925116993	1
0	7298	1156.734684461665	0
0	7300	1158.577306946565	1
0	7307	1159.02997883586	0
0	7310	1160.439134253636	1
0	7321	1161.028341976503	0
0	7324	1161.353140301815	1
0	7333	1161.931890760554	0
0	7336	1162.055178087653	1
0	7339	1162.376661388288	0
0	7342	1162.388863398412	1
0	7357	1165.31362516885	0
0	7359	1167.338561035246	1
0	7368	1167.909799903399	0
0	7371	1170.515205701061	1
0	7384	1172.012782328129	0
0	7387	1172.171840853716	1
0	7397	1173.751362576344	0
0	7400	1173.791928023729	1
0	7407	1174.807858994283	0
0	7410	1176.354356570069	1
0	7413	1176.800812994512	0
0	7416	1177.282999153504	1
0	7417	1177.477508366032	0
0	7420	1178.491075112918	1
0	7423	1179.672064061064	0
0	7426	1180.628547084069	1
0	7427	1180.936557415963	0
0	7430	1181.424689911614	1
0	7488	1189.336564548534	0
0	7490	1189.954668862481	1
0	7491	1189.954713082282	0
0	7494	1191.855274249943	1
0	7500	1192.958197264374	0
0	7503	1193.032638915524	1
0	7518	1194.758129902752	0
0	7521	1195.260285191159	1
0	7609	1205.348191903305	0
0	7611	1206.534227103013	1
0	7627	1208.218561103218	0
0	7630	1208.252632024178	1
0	7639	1209.165005253348	0
0	7642	1210.622419812302	1
0	7647	1211.293963421361	0
0	7650	1212.892722010395	1
0	7689	1218.662684943392	0
0	7692	1218.87844445544	1
0	7721	1221.94766357631	0
0	7724	1222.839088743883	1
0	7727	1222.957412439616	0
0	7730	1223.636391644853	1
0	7737	1224.497243479461	0
0	7740	1224.622180464953	1
0	7755	1226.666610540535	0
0	7757	1228.025460577187	1
0	7770	1229.706019550086	0
0	7772	1230.612727486014	1
0	7783	1232.747213411403	0
0	7786	1232.757027714945	1
0	7801	1234.467164959247	0
0	7803	1234.531556409141	1
0	7812	1235.852893396798	0
0	7815	1235.889407672082	1
0	7816	1236.042719672774	0
0	7819	1236.325804922933	1
0	7841	1239.515926870836	0
0	7844	1239.782195713362	1
0	7845	1240.153944617692	0
0	7848	1241.787129878043	1
0	7859	1244.272519676036	0
0	7862	1246.439741214741	1
0	7872	1248.039414811097	0
0	7875	1249.123757991063	1
0	7880	1249.392838665197	0
0	7883	1249.893876887035	1
0	7891	1251.454556727236	0
0	7893	1251.573946311505	1
0	7896	1252.745240664633	0
0	7898	1252.815126019783	1
0	7909	1254.713432095758	0
0	7912	1256.622312008146	1
0	7924	1257.876605735354	0
0	7926	1258.067155014012	1
0	7934	1260.005219610592	0
0	7937	1260.051151976216	1
0	7987	1266.031902677999	0
0	7990	1266.197198218751	1
0	8030	1272.609572026312	0
0	8033	1273.218498265769	1
0	8042	1274.664034805154	0
0	8044	1275.768540528415	1
0	8051	1276.900291078049	0
0	8054	1277.207464815461	1
0	8064	1278.409268188911	0
0	8067	1280.098503577233	1
0	8081	1281.523214607047	0
0	8084	1281.64968271291	1
0	8122	1286.851234281608	0
0	8124	1287.295369741747	1
0	8133	1288.524589027991	0
0	8136	1290.865843310368	1
0	8139	1292.235004456754	0
0	8142	1292.337903042775	1
0	8167	1295.926434092083	0
0	8170	1296.617876626375	1
0	8183	1297.875795540947	0
0	8186	1298.653440088652	1
0	8197	1301.117589846097	0
0	8200	1302.132302906162	1
0	8211	1304.772873491166	0
0	8214	1305.888247780361	1
0	8215	1306.122488937367	0
0	8218	1306.356443273359	1
0	8225	1307.683033848649	0
0	8228	1309.240466093245	1
0	8229	1309.483007449969	0
0	8232	1310.53915985563	1
0	8247	1313.210763809115	0
0	8249	1313.754567883716	1
0	8250	1314.190659683604	0
0	8253	1314.481805830287	1
0	8264	1316.10945577678	0
0	8266	1316.126158780227	1
0	8274	1317.166925261978	0
0	8277	1317.393667526312	1
0	8283	1319.090501421105	0
0	8286	1319.150566627577	1
0	8287	1319.228083774139	0
0	8290	1319.305707914836	1
0	8295	1320.070880805388	0
0	8298	1322.089252341051	1
0	8309	1324.254247871491	0
0	8311	1325.238820717657	1
0	8312	1325.482690816063	0
0	8315	1325.82961944304	1
0	8323	1326.811606996795	0
0	8326	1328.001126491429	1
0	8329	1328.386127868779	0
0	8332	1329.093072962598	1
0	8338	1330.017283840659	0
0	8341	1332.149318070968	1
0	8354	1334.099974475969	0
0	8357	1334.559275626781	1
0	8392	1338.343050131504	0
0	8395	1338.535795497243	1
0	8406	1339.785388947503	0
0	8409	1341.208559055707	1
0	8422	1344.138578411202	0
0	8424	1344.889524784786	1
0	8435	1345.895442922508	0
0	8437	1346.16667928304	1
0	8453	1348.203666674295	0
0	8456	1348.579690564883	1
0	8465	1350.162929797405	0
0	8467	1351.124375533591	1
0	8482	1352.516283736633	0
0	8485	1352.578006227371	1
0	8515	1356.408040808771	0
0	8517	1356.753911236327	1
0	8529	1357.763998045964	0
0	8532	1358.352389213194	1
0	8596	1367.2924969859	0
0	8598	1367.719312730951	1
0	8611	1370.07596343543	0
0	8614	1370.630553920619	1
0	8624	1372.570212855032	0
0	8626	1375.277330161093	1
0	8655	1378.114006997169	0
0	8657	1378.31841178217	1
0	8668	1379.505769500257	0
0	8671	1379.554803911351	1
0	8674	1379.696777931286	0
0	8677	1380.75596243021	1
0	8681	1381.54352627064	0
0	8684	1381.592148549157	1
0	8685	1381.67197096849	0
0	8688	1382.260735070476	1
0	8689	1382.337233313512	0
0	8692	1382.983913917993	1
0	8701	1383.674410141511	0
0	8704	1384.973853619324	1
0	8705	1385.157871222391	0
0	8708	1385.478229254424	1
0	8717	1386.414718501139	0
0	8719	1387.853256453292	1
0	8724	1388.960401651557	0
0	8727	1389.309408214705	1
0	8728	1389.514350409669	0
0	8731	1390.034743990848	1
0	8745	1391.484243995358	0
0	8747	1391.73856436633	1
0	8760	1394.082565878159	0
0	8762	1395.09993694226	1
0	8791	1397.701286470118	0
0	8793	1397.936257607863	1
0	8824	1400.244322382737	0
0	8827	1401.050818261995	1
0	8834	1401.683018821432	0
0	8836	1401.858053681886	1
0	8844	1404.090130348924	0
0	8846	1405.32146284287	1
0	8847	1405.353116766502	0
0	8850	1405.55250530939	1
0	8851	1405.80103036645	0
0	8854	1406.120793064356	1
0	8860	1407.12466104018	0
0	8862	1407.185531905244	1
0	8863	1407.302056694439	0
0	8866	1409.890482445478	1
0	8873	1411.218444506003	0
0	8876	1411.276960882326	1
0	8879	1411.720565343325	0
0	8882	1413.309446890932	1
0	8892	1414.765847301959	0
0	8894	1415.894621805637	1
0	8906	1418.517931925533	0
0	8908	1420.217658941442	1
0	8922	1423.207877068959	0
0	8925	1424.113221230073	1
0	8933	1425.146823542841	0
0	8936	1425.362714401574	1
0	8939	1426.205314408387	0
0	8942	1427.114308283668	1
0	8950	1428.369808513996	0
0	8953	1428.548973973798	1
0	8958	1429.175850485586	0
0	8961	1429.329817407707	1
0	8981	1431.797800253601	0
0	8984	1432.057594868288	1
0	8991	1433.228005843262	0
0	8994	1433.528022590212	1
0	8995	1433.812889006815	0
0	8998	1434.284463474826	1
0	9005	1435.940540697198	0
0	9007	1436.70845869575	1
0	9021	1439.584149223741	0
0	9024	1440.484515249356	1
0	9039	1441.198866146426	0
0	9042	1441.372599225196	1
0	9047	1441.683293434387	0
0	9050	1441.863176978295	1
0	9051	1442.071582081764	0
0	9054	1442.518230223047	1
0	9057	1443.505528002671	0
0	9060	1444.583948715552	1
0	9063	1444.82903747261	0
0	9066	1445.019274286636	1
0	9069	1445.598040782364	0
0	9071	1445.664238183103	1
0	9072	1446.801459931062	0
0	9075	1447.699754517179	1
0	9078	1448.150507395702	0
0	9081	1448.423149465795	1
0	9086	1449.905488070064	0
0	9089	1450.042930898324	1
0	9094	1450.894702042138	0
0	9097	1451.005576314987	1
0	9104	1453.401221294184	0
0	9107	1453.462564483064	1
0	9136	1457.247601033448	0
0	9138	1457.254614799781	1
0	9152	1458.350745848651	0
0	9155	1458.400162801217	1
0	9164	1459.915852124847	0
0	9167	1461.297034236529	1
0	9200	1465.06342455446	0
0	9202	1466.318712409378	1
0	9226	1469.603519804284	0
0	9229	1470.524277412142	1
0	9232	1470.843622958605	0
0	9235	1471.292178321252	1
0	9246	1472.829724569503	0
0	9248	1474.566390039841	1
0	9257	1477.074980645402	0
0	9259	1477.167023426135	1
0	9275	1479.313047565471	0
0	9278	1479.315785613942	1
0	9281	1480.398624443369	0
0	9284	1480.991904122699	1
0	9294	1482.166538483869	0
0	9297	1483.549488788778	1
0	9298	1483.586185810612	0
0	9301	1484.003679135773	1
0	9312	1485.775211582183	0
0	9314	1486.102527263374	1
0	9320	1487.39116768726	0
0	9323	1487.399082867973	1
0	9330	1488.748219700595	0
0	9332	1490.115219259798	1
0	9357	1494.163724555839	0
0	9360	1495.557504669893	1
0	9411	1500.422602271574	0
0	9414	1501.856709104345	1
0	9455	1507.4090087303	0
0	9457	1507.556941965281	1
0	9473	1508.767348488639	0
0	9476	1509.005218604156	1
0	9491	1510.600442402893	0
0	9493	1511.075012077104	1
0	9516	1515.653014516769	0
0	9519	1516.83541600095	1
0	9541	1519.127405857835	0
0	9544	1519.378842061593	1
0	9556	1521.722007170475	0
0	9559	1521.844181724312	1
0	9564	1522.349270931322	0
0	9566	1523.132116695893	1
0	9573	1525.099730417512	0
0	9575	1526.968004581357	1
0	9582	1528.43833278842	0
0	9585	1528.442838777239	1
0	9593	1529.8068997686	0
0	9595	1530.315068803499	1
0	9607	1531.898799637228	0
0	9610	1532.102219732759	1
0	9613	1532.867419005705	0
0	9615	1533.404168137702	1
0	9620	1533.830165857769	0
0	9623	1533.899689364781	1
0	9626	1534.431684744106	0
0	9628	1535.818643604467	1
0	9631	1536.656459502359	0
0	9633	1536.753787345378	1
0	9634	1537.229581128814	0
0	9637	1538.801212049571	1
0	9640	1539.199080690663	0
0	9643	1539.315299688637	1
0	9646	1539.52147252115	0
0	9649	1539.754185181992	1
0	9660	1540.825646994694	0
0	9662	1540.83916385883	1
0	9671	1544.333594464427	0
0	9673	1545.710545211119	1
0	9685	1547.181125935201	0
0	9687	1547.62678519559	1
0	9706	1550.845758989809	0
0	9709	1551.116985802164	1
0	9714	1551.656059083198	0
0	9717	1551.936394154722	1
0	9729	1553.270577619015	0
0	9732	1553.569478262229	1
0	9748	1556.108636511361	0
0	9751	1556.783112945558	1
0	9758	1559.154656920557	0
0	9761	1560.350991958757	1
0	9767	1561.618102307911	0
0	9770	1561.927050933792	1
0	9771	1562.360896780284	0
0	9774	1563.837255737093	1
0	9779	1564.692106801368	0
0	9781	1564.781539017964	1
0	9809	1568.469109864801	0
0	9811	1569.243198248026	1
0	9822	1570.967514909373	0
0	9825	1571.124898484247	1
0	9850	1573.529966194793	0
0	9853	1573.805434026647	1
0	9865	1575.316405951142	0
0	9868	1577.21948878395	1
0	9877	1578.585656446782	0
0	9880	1580.876225352899	1
0	9881	1581.487639706808	0
0	9884	1581.803657082884	1
0	9894	1583.711868133835	0
0	9896	1584.29455977885	1
0	9897	1584.349876931525	0
0	9900	1584.937102014784	1
0	9911	1585.358351745361	0
0	9914	1585.398595550521	1
0	9915	1586.086129601534	0
0	9918	1586.207524728669	1
0	9952	1590.963187887006	0
0	9954	1591.26412852697	1
0	9959	1591.620407368329	0
0	9962	1592.281641723863	1
0	9967	1592.665562201787	0
0	9970	1594.194929531779	1
0	9973	1594.965515826556	0
0	9976	1595.082070624217	1
0	9979	1596.232098454129	0
0	9982	1596.602922233558	1
0	9987	1597.044991994124	0
0	9990	1597.321139314874	1
0	9991	1597.408087393639	0
0	9994	1599.285267237877	1
0	10026	1602.929667451775	0
0	10029	1603.174455860584	1
0	10035	1604.992733500242	0
0	10038	1608.3469886999	1
0	10050	1610.074592713312	0
0	10052	1611.314156780989	1
0	10055	1611.459385314902	0
0	10058	1611.880233620341	1
0	10066	1612.608962791752	0
0	10069	1614.947893178786	1
0	10072	1615.065402006237	0
0	10075	1615.365576680249	1
0	10092	1617.221663866202	0
0	10095	1617.337981231099	1
0	10112	1619.162555621428	0
0	10114	1620.114341680203	1
0	10135	1621.357439789752	0
0	10138	1621.603716620666	1
0	10151	1622.634103536618	0
0	10153	1626.630091106268	1
0	10154	1626.852262211507	0
0	10157	1627.028268189777	1
0	10163	1628.472490796238	0
0	10166	1628.736751082102	1
0	10169	1629.242735296814	0
0	10172	1629.2453487754	1
0	10200	1632.654882078909	0
0	10203	1632.998969512973	1
0	10214	1634.254313548079	0
0	10217	1637.060575135419	1
0	10242	1640.262011263868	0
0	10244	1641.579098093904	1
0	10249	1642.368905863048	0
0	10251	1642.377016687973	1
0	10254	1643.1062223213	0
0	10256	1644.731413549639	1
0	10267	1646.734760664058	0
0	10269	1647.192564146745	1
0	10352	1657.682194265684	0
0	10354	1658.863173084466	1
0	10368	1660.207786842589	0
0	10370	1660.910130738881	1
0	10385	1663.477456706819	0
0	10388	1663.589980419653	1
0	10406	1666.086688295096	0
0	10409	1667.021653608195	1
0	10422	1668.689726457832	0
0	10424	1670.194526231423	1
0	10442	1672.907381900047	0
0	10445	1673.092050753809	1
0	10456	1674.16383278032	0
0	10459	1674.543465658797	1
0	10554	1685.789310602663	0
0	10556	1685.941941263253	1
0	10589	1691.339865760871	0
0	10591	1691.587979751294	1
0	10601	1693.38204853271	0
0	10604	1693.386720788517	1
0	10609	1693.6040826487	0
0	10612	1693.638680806405	1
0	10620	1694.496826230077	0
0	10623	1694.956430353536	1
0	10624	1694.99955258976	0
0	10627	1698.972268521716	1
0	10631	1699.979928538153	0
0	10633	1700.703239524817	1
0	10636	1701.375637661582	0
0	10639	1701.777106911189	1
0	10644	1702.685785968294	0
0	10647	1702.781324222365	1
0	10651	1703.876111245507	0
0	10654	1705.164980553343	1
0	10657	1705.227126053345	0
0	10660	1706.946664335954	1
0	10671	1707.977321902754	0
0	10673	1708.076094408841	1
0	10686	1709.463910159505	0
0	10689	1709.963536661743	1
0	10694	1711.090422086244	0
0	10697	1712.254532286507	1
0	10700	1712.593406633202	0
0	10703	1713.722921811932	1
0	10704	1714.046296149224	0
0	10707	1714.111748409158	1
0	10714	1716.061671567552	0
0	10716	1716.091366351981	1
0	10717	1716.641270147033	0
0	10720	1717.374033894221	1
0	10721	1717.647825981608	0
0	10724	1717.781487866705	1
0	10752	1721.331946920295	0
0	10755	1723.365793780664	1
0	10763	1724.732590638338	0
0	10766	1725.344132110346	1
0	10774	1726.412643248006	0
0	10777	1727.217661639197	1
0	10778	1727.763729864998	0
0	10781	1728.27194257177	1
0	10786	1728.878718465106	0
0	10789	1728.946240597309	1
0	10796	1730.497423973213	0
0	10799	1730.968072778211	1
0	10800	1731.009923580938	0
0	10803	1731.158302770204	1
0	10804	1731.557874454905	0
0	10807	1732.317694209299	1
0	10813	1733.298842644255	0
0	10816	1734.504367748524	1
0	10817	1734.545591678508	0
0	10820	1735.769946903672	1
0	10821	1735.787169167577	0
0	10824	1735.801084118276	1
0	10837	1737.992439680707	0
0	10840	1738.577209625994	1
0	10859	1740.75075516825	0
0	10862	1741.847730021629	1
0	10874	1743.457997007479	0
0	10876	1744.445919758214	1
0	10879	1744.537333398325	0
0	10882	1744.913970837656	1
0	10887	1745.803904870703	0
0	10889	1746.045136845733	1
0	10896	1746.631684960922	0
0	10899	1747.349291320311	1
0	10909	1749.043645328285	0
0	10911	1749.063006399397	1
0	10916	1749.432908807567	0
0	10919	1749.887804219373	1
0	10928	1751.228083792823	0
0	10931	1751.857255297126	1
0	10936	1752.914330669422	0
0	10938	1753.846607332692	1
0	10945	1755.278813873477	0
0	10947	1756.084316019131	1
0	10971	1759.71577797331	0
0	10974	1760.335441419012	1
0	10994	1761.620437031121	0
0	10997	1761.763195311854	1
0	11027	1764.670375971212	0
0	11030	1765.260196776946	1
0	11051	1768.050622577979	0
0	11053	1769.033856341101	1
0	11062	1770.377519413393	0
0	11064	1771.151809082536	1
0	11083	1772.874384221413	0
0	11085	1772.881362387544	1
0	11099	1774.703106111632	0
0	11102	1776.240646994398	1
0	11113	1776.999915206289	0
0	11116	1778.83324340563	1
0	11129	1780.183408566114	0
0	11131	1780.386439542264	1
0	11143	1782.650810809938	0
0	11145	1783.017322577259	1
0	11154	1785.278990213207	0
0	11156	1786.60847640878	1
0	11170	1788.115744930677	0
0	11172	1789.474473251714	1
0	11175	1789.886827818725	0
0	11178	1791.515451636924	1
0	11182	1792.328084812586	0
0	11185	1792.892632192915	1
0	11188	1793.136356326723	0
0	11191	1793.81234904926	1
0	11202	1794.390650928173	0
0	11205	1794.885778808275	1
0	11254	1801.766557680042	0
0	11257	1801.96855993028	1
0	11275	1803.939804838492	0
0	11277	1804.527467141572	1
0	11301	1808.013066480966	0
0	11304	1808.830858420763	1
0	11420	1822.713432596744	0
0	11423	1823.527508143244	1
0	11426	1824.107059079434	0
0	11428	1824.21539798376	1
0	11436	1825.33982359078	0
0	11438	1825.864357900178	1
0	11441	1826.570977100759	0
0	11444	1827.012189966019	1
0	11449	1827.203998671028	0
0	11452	1829.092424163372	1
0	11457	1829.937157685457	0
0	11459	1829.938526049704	1
0	11468	1830.654235963148	0
0	11470	1831.023244345538	1
0	11477	1832.289136683593	0
0	11480	1832.980658628564	1
0	11491	1834.893605681193	0
0	11493	1836.718673482152	1
0	11507	1838.014268455061	0
0	11510	1838.222726895525	1
0	11526	1841.007411968058	0
0	11529	1841.045333640486	1
0	11534	1841.380753331835	0
0	11537	1842.003427575258	1
0	11542	1842.265522712134	0
0	11545	1842.536847667856	1
0	11554	1843.740777855433	0
0	11557	1844.940690514446	1
0	11570	1847.155791084568	0
0	11572	1847.225312927596	1
0	11584	1848.564029645382	0
0	11587	1848.697792407697	1
0	11590	1849.061649241731	0
0	11593	1849.285047452454	1
0	11604	1849.76156739532	0
0	11607	1849.8616037266	1
0	11610	1850.095521506126	0
0	11613	1851.008472441132	1
0	11619	1852.66690154804	0
0	11622	1855.145292373492	1
0	11649	1858.340847657202	0
0	11651	1860.236197850707	1
0	11655	1861.745172790219	0
0	11657	1862.093201366211	1
0	11662	1863.70085205367	0
0	11665	1864.307764229682	1
0	11675	1865.542347553072	0
0	11678	1866.447838801301	1
0	11704	1869.582683333037	0
0	11707	1869.817246260041	1
0	11720	1871.117062770073	0
0	11723	1873.001325276469	1
0	11724	1873.13719661904	0
0	11727	1873.341001001775	1
0	11752	1875.185314046518	0
0	11755	1875.454271382065	1
0	11760	1876.875159216718	0
0	11762	1877.769914573117	1
0	11772	1878.845291557549	0
0	11775	1879.500800674484	1
0	11804	1882.813023751043	0
0	11807	1883.116839731165	1
0	11822	1885.60700564313	0
0	11825	1886.146079430571	1
0	11840	1888.565292971233	0
0	11842	1888.860914943315	1
0	11854	1891.048247908754	0
0	11856	1892.037500766898	1
0	11869	1894.022426155806	0
0	11872	1895.237225145456	1
0	11915	1901.327542584382	0
0	11917	1901.349338076465	1
0	11922	1902.059868978117	0
0	11925	1902.36777419697	1
0	11933	1903.509731142356	0
0	11936	1904.959763702031	1
0	11948	1906.855263121873	0
0	11951	1907.235174472532	1
0	11952	1907.850545029917	0
0	11955	1908.129012312436	1
0	11961	1909.431356205614	0
0	11963	1910.101392929196	1
0	11966	1910.770871814371	0
0	11969	1910.894140518242	1
0	11974	1911.000681559433	0
0	11977	1911.635395960039	1
0	11988	1912.348774094064	0
0	11991	1913.123369053131	1
0	12001	1915.424278360033	0
0	12004	1916.585765446418	1
0	12014	1918.121126175052	0
0	12016	1918.130201781926	1
0	12017	1918.803346660412	0
0	12020	1920.689299612511	1
0	12028	1922.909059519787	0
0	12031	1923.001729391528	1
0	12034	1923.77683685983	0
0	12037	1925.175828758934	1
0	12095	1934.019449636948	0
0	12097	1934.046035810667	1
0	12110	1935.051540659579	0
0	12113	1936.152553090405	1
0	12124	1937.700426222174	0
0	12127	1938.46687042292	1
0	12138	1941.394592088627	0
0	12141	1941.847701048161	1
0	12154	1944.105669606166	0
0	12157	1945.252753924233	1
0	12166	1946.37764410052	0
0	12168	1946.654295389787	1
0	12169	1946.707078494495	0
0	12172	1947.343937831235	1
0	12178	1948.756983135531	0
0	12181	1951.729325129016	1
0	12182	1951.769421409793	0
0	12185	1952.096972692167	1
0	12215	1956.853676974575	0
0	12217	1956.934862660683	1
0	12228	1957.886494787146	0
0	12231	1958.029470947063	1
0	12239	1959.109544605824	0
0	12241	1959.404368393191	1
0	12250	1961.140253617751	0
0	12253	1961.23817636128	1
0	12264	1961.991236318922	0
0	12267	1962.742702884484	1
0	12272	1962.99063914326	0
0	12275	1968.69008634964	1
0	12286	1970.841919376094	0
0	12288	1972.72065674637	1
0	12289	1973.048023538702	0
0	12292	1974.206755062612	1
0	12299	1975.267176867308	0
0	12301	1975.646837728556	1
0	12302	1975.798013390618	0
0	12305	1977.677801078591	1
0	12346	1983.571921908058	0
0	12348	1983.732334840902	1
0	12359	1984.836107794978	0
0	12361	1986.004206846625	1
0	12373	1987.562590154214	0
0	12376	1988.977102797722	1
0	12388	1990.593358531731	0
0	12391	1991.057294810717	1
0	12420	1996.161645847012	0
0	12422	1996.36968811917	1
0	12423	1996.657021012973	0
0	12426	1997.663690368813	1
0	12450	2000.394087822488	0
0	12452	2000.651711027769	1
0	12487	2004.309654797378	0
0	12489	2004.388076454619	1
0	12500	2005.882847220792	0
0	12502	2007.002366289868	1
0	12511	2007.883725518708	0
0	12514	2008.552779955822	1
0	12517	2009.294368043116	0
0	12520	2009.783105208553	1
0	12530	2011.654567410479	0
0	12532	2011.982477324417	1
0	12533	2011.987728482975	0
0	12536	2013.369831643171	1
0	12547	2014.273578581363	0
0	12550	2014.83731778343	1
0	12553	2015.388860826586	0
0	12556	2015.643162732797	1
0	12591	2018.48268125157	0
0	12594	2020.247306147237	1
0	12604	2021.169233711413	0
0	12607	2021.467483240656	1
0	12615	2022.975393229164	0
0	12617	2024.333321929831	1
0	12632	2026.509028056088	0
0	12634	2027.949884024605	1
0	12804	2051.314193779264	0
0	12806	2051.388417027798	1
0	12816	2052.970775414983	0
0	12819	2053.613720822716	1
0	12834	2055.208477749309	0
0	12837	2055.810328337354	1
0	12850	2057.351524440676	0
0	12853	2057.522236168726	1
0	12862	2058.480506613753	0
0	12865	2058.51699861077	1
0	12890	2061.05167488565	0
0	12893	2061.826301422316	1
0	12906	2063.620864840963	0
0	12909	2063.682995291619	1
0	12918	2064.366417511615	0
0	12921	2064.905234010928	1
0	12922	2064.97763008978	0
0	12925	2066.045430386566	1
0	12985	2073.052827604868	0
0	12988	2074.060928962496	1
0	13002	2076.44400747469	0
0	13004	2077.805114936633	1
0	13011	2079.588164981933	0
0	13013	2079.610811802991	1
0	13014	2079.771216984708	0
0	13017	2080.938631003006	1
0	13026	2081.820384060095	0
0	13029	2082.603938051261	1
0	13032	2082.893006603337	0
0	13035	2084.046815831799	1
0	13043	2085.81121613394	0
0	13046	2086.518196988228	1
0	13056	2087.814699705918	0
0	13058	2088.899514616475	1
0	13070	2090.317929910107	0
0	13073	2090.464343109865	1
0	13090	2092.702847674606	0
0	13093	2092.995706248287	1
0	13094	2093.467103374124	0
0	13097	2094.593463344202	1
0	13120	2097.617388278474	0
0	13123	2098.592953254705	1
0	13135	2100.682259432806	0
0	13137	2100.896133039161	1
0	13218	2110.39059947507	0
0	13220	2110.553999175078	1
0	13223	2111.304349268852	0
0	13226	2111.377415553626	1
0	13242	2112.750220028712	0
0	13245	2112.960774031945	1
0	13266	2116.557049878979	0
0	13269	2116.682806229845	1
0	13270	2116.723245298789	0
0	13273	2116.989966512933	1
0	13279	2118.087952217953	0
0	13282	2118.303363218495	1
0	13283	2119.347823021974	0
0	13286	2120.832905839479	1
0	13293	2121.724086858385	0
0	13296	2122.32479158705	1
0	13303	2123.57007097024	0
0	13306	2124.427715874735	1
0	13315	2125.850957304018	0
0	13318	2125.870704901429	1
0	13321	2126.196728164909	0
0	13324	2126.201245802225	1
0	13347	2129.764854430291	0
0	13350	2130.755917497315	1
0	13364	2132.476177556973	0
0	13367	2132.720251790825	1
0	13380	2134.601985334582	0
0	13382	2136.300823632564	1
0	13383	2136.315694364067	0
0	13386	2136.542038453417	1
0	13420	2141.500705445396	0
0	13423	2141.635329287663	1
0	13428	2142.324491291497	0
0	13431	2143.190919013488	1
0	13444	2144.661265449906	0
0	13446	2144.837901331433	1
0	13455	2145.482703725575	0
0	13458	2145.879862692219	1
0	13464	2147.114105575904	0
0	13467	2148.279533971392	1
0	13468	2148.464766304309	0
0	13471	2148.925132931046	1
0	13500	2153.572118363177	0
0	13502	2154.947848895713	1
0	13503	2155.34829645207	0
0	13506	2156.249717591042	1
0	13513	2157.619356907597	0
0	13515	2157.849415527481	1
0	13516	2158.241903246082	0
0	13519	2158.464283091632	1
0	13520	2158.513689954131	0
0	13523	2158.948629503746	1
0	13529	2159.783298486055	0
0	13532	2159.917178047428	1
0	13533	2160.175102490951	0
0	13536	2160.360151467667	1
0	13539	2160.616773703633	0
0	13542	2160.755582153898	1
0	13555	2161.91224936405	0
0	13557	2162.231386348875	1
0	13568	2162.893468913763	0
0	13571	2163.435856285027	1
0	13576	2163.819428736148	0
0	13579	2164.027304805608	1
0	13585	2164.714907246731	0
0	13588	2164.728329918037	1
0	13591	2164.860000484188	0
0	13594	2165.022012169229	1
0	13598	2165.910950403477	0
0	13601	2165.976123618217	1
0	13602	2166.00004753629	0
0	13605	2168.081509524625	1
0	13606	2168.134993617299	0
0	13609	2168.570615057242	1
0	13616	2169.520646187396	0
0	13619	2169.56871792361	1
0	13620	2169.660670719782	0
0	13623	2170.389381202271	1
0	13630	2171.243142779488	0
0	13633	2171.811832351537	1
0	13634	2172.153396213523	0
0	13637	2174.098047040088	1
0	13638	2174.111334581746	0
0	13641	2175.263233607632	1
0	13642	2175.5635491637	0
0	13645	2176.5016505686	1
0	13650	2177.013533769532	0
0	13652	2177.59698598431	1
0	13655	2177.880317072019	0
0	13658	2179.905684515337	1
0	13659	2180.41819065534	0
0	13662	2180.579208518718	1
0	13672	2182.587073883927	0
0	13674	2183.069266589395	1
0	13692	2185.621346855003	0
0	13695	2185.888548993096	1
0	13702	2186.446824249876	0
0	13705	2187.764367515745	1
0	13713	2189.979269280028	0
0	13716	2190.259683630067	1
0	13719	2191.848830791493	0
0	13721	2192.482916776914	1
0	13730	2194.280442681641	0
0	13732	2194.375911616866	1
0	13743	2195.282560980815	0
0	13746	2195.655694227218	1
0	13767	2198.92826166481	0
0	13770	2198.953889061023	1
0	13775	2199.74345903588	0
0	13778	2200.72824127851	1
0	13788	2202.227340727621	0
0	13790	2202.734756041384	1
0	13836	2209.48336556823	0
0	13838	2210.918491811847	1
0	13880	2216.299318830194	0
0	13883	2216.406069550111	1
0	13896	2217.715171536125	0
0	13898	2218.055379679992	1
0	13907	2219.79292499214	0
0	13910	2220.416356329658	1
0	13913	2220.692530808991	0
0	13916	2220.698341224097	1
0	13928	2222.634421230081	0
0	13931	2222.929467640977	1
0	13936	2223.540738713729	0
0	13938	2223.608358089008	1
0	13958	2225.585217488639	0
0	13961	2225.768558612057	1
0	13972	2228.028361784768	0
0	13974	2228.073796033248	1
0	13975	2228.343037683287	0
0	13978	2229.189131946174	1
0	14007	2232.729775409744	0
0	14010	2233.351264727335	1
0	14033	2236.722887977234	0
0	14036	2236.953324754248	1
0	14053	2238.561661634571	0
0	14055	2238.651350382377	1
0	14074	2240.212867513138	0
0	14077	2241.803117446937	1
0	14108	2244.971290481204	0
0	14110	2246.087786120729	1
0	14121	2247.620511015007	0
0	14123	2247.947504129379	1
0	14156	2252.864078213374	0
0	14158	2253.268258369346	1
0	14181	2256.745564663554	0
0	14184	2256.777013534724	1
0	14187	2257.025866698737	0
0	14190	2257.204731013956	1
0	14191	2257.227762745406	0
0	14194	2257.26396623125	1
0	14201	2258.24263923518	0
0	14203	2258.498749019913	1
0	14204	2259.174091147551	0
0	14207	2259.781789673195	1
0	14208	2259.927575000182	0
0	14211	2260.158957126126	1
0	14215	2260.905118688286	0
0	14218	2261.691377621693	1
0	14219	2262.616142139949	0
0	14222	2263.613080954409	1
0	14251	2266.336288803997	0
0	14253	2266.699692725414	1
0	14258	2267.704479131668	0
0	14260	2267.882035978436	1
0	14268	2268.846520937455	0
0	14271	2269.00733658063	1
0	14313	2273.759041120131	0
0	14316	2275.126105188904	1
0	14373	2281.437288546951	0
0	14375	2281.594265663863	1
0	14408	2284.384740783526	0
0	14411	2284.575243179657	1
0	14477	2292.225156517592	0
0	14479	2292.354574175397	1
0	14490	2294.098034733062	0
0	14492	2294.578833796836	1
0	14499	2296.134270683707	0
0	14502	2297.976262376917	1
0	14523	2300.874564333858	0
0	14526	2302.164369693658	1
0	14527	2302.25000292258	0
0	14530	2302.899451614098	1
0	14588	2309.471962787082	0
0	14591	2309.489066169942	1
0	14610	2310.67147685886	0
0	14613	2311.953077334081	1
0	14625	2312.834401934667	0
0	14628	2313.507280401149	1
0	14634	2314.517997060199	0
0	14637	2316.552190864003	1
0	14661	2321.070885755532	0
0	14664	2321.145219096032	1
0	14674	2322.643838043892	0
0	14677	2323.08176489413	1
0	14678	2323.46538418001	0
0	14681	2324.054068746213	1
0	14695	2326.821435426771	0
0	14697	2326.999309020016	1
0	14738	2330.11207543484	0
0	14741	2330.60376667703	1
0	14750	2331.850959382397	0
0	14753	2333.174296328463	1
0	14792	2337.034250321957	0
0	14795	2337.486027503931	1
0	14800	2338.904108801193	0
0	14802	2341.306071680095	1
0	14805	2341.395187848533	0
0	14808	2342.108377870939	1
0	14814	2343.949433303668	0
0	14817	2344.858799579503	1
0	14818	2345.110704995716	0
0	14821	2345.145048720499	1
0	14822	2345.486688504196	0
0	14825	2346.471553525309	1
0	14830	2347.415579503767	0
0	14832	2348.314599184176	1
0	14835	2348.572241050125	0
0	14838	2350.136127468019	1
0	14839	2350.429780350842	0
0	14842	2350.552211371683	1
0	14846	2351.658749009617	0
0	14848	2351.950811736182	1
0	14849	2352.11890030572	0
0	14852	2354.132691433148	1
0	14853	2354.158891557672	0
0	14856	2355.763375619614	1
0	14866	2357.990026672228	0
0	14869	2358.640269938889	1
0	14883	2359.900023195558	0
0	14886	2360.621735037912	1
0	14892	2361.79024975842	0
0	14895	2362.052779282891	1
0	14902	2362.605588692027	0
0	14905	2362.73176856951	1
0	14919	2364.17668383036	0
0	14921	2364.486264774781	1
0	14932	2365.92476902752	0
0	14935	2366.320009058533	1
0	14943	2367.90018041351	0
0	14946	2368.036478465102	1
0	14957	2368.960490087283	0
0	14960	2368.974863150447	1
0	14967	2369.602420198534	0
0	14970	2369.686781713927	1
0	14977	2370.809489962899	0
0	14979	2372.610487092862	1
0	14992	2374.079737681594	0
0	14994	2374.670282964811	1
0	15003	2375.316508475977	0
0	15006	2376.584557226271	1
0	15013	2377.259043866285	0
0	15015	2378.741133134975	1
0	15041	2383.009182492122	0
0	15044	2383.52182418136	1
0	15045	2383.551826058112	0
0	15048	2385.2730810034	1
0	15051	2385.831367424163	0
0	15053	2386.993160010006	1
0	15056	2387.246620497057	0
0	15059	2389.180719976123	1
0	15062	2389.553762149615	0
0	15065	2390.081532224768	1
0	15068	2390.539846581071	0
0	15071	2392.382918344951	1
0	15084	2394.168036455585	0
0	15087	2395.42077241245	1
0	15102	2397.878883458714	0
0	15104	2398.221990104342	1
0	15107	2398.823272519137	0
0	15109	2399.62554270088	1
0	15110	2399.779027486153	0
0	15113	2400.39279225487	1
0	15120	2400.963619481153	0
0	15123	2401.57247355714	1
0	15130	2403.173053198061	0
0	15133	2403.487100232569	1
0	15142	2404.523126525996	0
0	15144	2405.906872360801	1
0	15167	2408.055518138243	0
0	15170	2409.117395504449	1
0	15180	2410.264941956041	0
0	15183	2410.613702018781	1
0	15186	2411.103940524269	0
0	15189	2411.250500166744	1
0	15192	2411.55511672232	0
0	15195	2411.826400072037	1
0	15196	2412.034117036947	0
0	15199	2412.462719611934	1
0	15202	2413.164508818064	0
0	15204	2415.623431496553	1
0	15207	2415.929145987031	0
0	15210	2416.051978211204	1
0	15211	2416.118194835594	0
0	15214	2416.608957033441	1
0	15240	2419.779189711677	0
0	15243	2420.235285780681	1
0	15249	2421.651768923486	0
0	15251	2421.905774743369	1
0	15254	2422.053948468247	0
0	15257	2424.205554455719	1
0	15261	2425.372712178152	0
0	15263	2426.545075121144	1
0	15266	2427.551830082768	0
0	15268	2428.302404716046	1
0	15274	2429.557547245819	0
0	15277	2431.905111133493	1
0	15288	2432.913437249858	0
0	15291	2433.249496499601	1
0	15302	2434.877095431651	0
0	15305	2435.966625246956	1
0	15336	2439.230648275791	0
0	15338	2439.32691483344	1
0	15349	2440.741128718565	0
0	15352	2441.085995509078	1
0	15373	2443.849255646484	0
0	15376	2446.011190119228	1
0	15403	2449.619909887305	0
0	15405	2449.690093677092	1
0	15416	2450.692231099191	0
0	15418	2450.698807053158	1
0	15421	2451.629410675734	0
0	15424	2452.095296800216	1
0	15425	2452.551973765654	0
0	15428	2454.300139163425	1
0	15435	2455.042796163608	0
0	15438	2455.133130640666	1
0	15441	2455.509685552152	0
0	15444	2455.837072162685	1
0	15445	2456.388639509374	0
0	15448	2456.683049392874	1
0	15455	2457.326125070945	0
0	15458	2458.544825356848	1
0	15463	2459.175414316681	0
0	15465	2459.258861008448	1
0	15472	2460.631371858676	0
0	15474	2462.136144147228	1
0	15477	2462.901944501709	0
0	15480	2463.32818079988	1
0	15481	2463.391622042147	0
0	15484	2463.411937942711	1
0	15491	2464.750302215729	0
0	15494	2465.528663761746	1
0	15501	2466.598160943699	0
0	15503	2466.948656641947	1
0	15510	2467.964847610299	0
0	15513	2467.990821476562	1
0	15517	2469.084728975758	0
0	15519	2469.095091643038	1
0	15528	2470.212353918309	0
0	15531	2470.376053768218	1
0	15544	2472.506190346921	0
0	15547	2474.537468348769	1
0	15556	2476.581295059956	0
0	15558	2476.82509814287	1
0	15573	2479.165712874474	0
0	15576	2479.340154694783	1
0	15581	2480.76178363606	0
0	15583	2481.398687812333	1
0	15588	2482.080504710671	0
0	15590	2483.276911520731	1
0	15593	2483.735105997267	0
0	15596	2485.779117984427	1
0	15616	2487.682155302073	0
0	15618	2487.939427068968	1
0	15632	2490.049129964683	0
0	15634	2490.812748159323	1
0	15685	2495.685490038314	0
0	15688	2496.548451049064	1
0	15705	2499.261012165256	0
0	15708	2500.953981953204	1
0	15725	2503.071090335451	0
0	15728	2505.441592608211	1
0	15745	2506.776027965108	0
0	15748	2506.887260043174	1
0	15760	2509.317756980844	0
0	15762	2513.46034986727	1
0	15888	2531.1076900828	0
0	15891	2531.994031640578	1
0	15899	2532.910125990588	0
0	15902	2534.035187106956	1
0	15944	2539.0632031807	0
0	15947	2540.048775226547	1
0	15958	2541.157373048719	0
0	15961	2541.452396946128	1
0	15968	2541.597698480337	0
0	15971	2542.071638204462	1
0	15978	2542.584155230231	0
0	15981	2543.374443822757	1
0	15991	2545.376240552803	0
0	15993	2546.001003004441	1
0	15996	2546.675100095028	0
0	15998	2547.700068094887	1
0	16003	2548.284644443274	0
0	16006	2549.676689854822	1
0	16009	2549.756861477468	0
0	16012	2550.838432613012	1
0	16019	2551.120465867974	0
0	16022	2551.809387888065	1
0	16040	2553.678142977471	0
0	16042	2553.990302520038	1
0	16058	2555.758327380685	0
0	16061	2555.981596271853	1
0	16171	2566.613695737302	0
0	16173	2566.913419651521	1
0	16184	2568.589498561847	0
0	16186	2568.785838376075	1
0	16242	2575.031854957261	0
0	16244	2576.269052207729	1
0	16256	2578.222165165024	0
0	16258	2578.856220813479	1
0	16283	2582.296726602903	0
0	16286	2582.419274853048	1
0	16292	2583.32462816249	0
0	16295	2583.530355680919	1
0	16298	2583.774048765042	0
0	16301	2584.068529764457	1
0	16309	2586.037047483946	0
0	16311	2586.442764895179	1
0	16320	2587.863936083633	0
0	16322	2587.944460119721	1
0	16323	2588.096575386975	0
0	16326	2588.782400380956	1
0	16337	2590.621174801151	0
0	16340	2592.340327400278	1
0	16341	2592.416694384887	0
0	16344	2592.488438722788	1
0	16353	2593.753317826266	0
0	16355	2594.552959668832	1
0	16356	2595.375166720135	0
0	16359	2596.757354812071	1
0	16369	2597.537365984099	0
0	16372	2597.811050090064	1
0	16385	2599.354630124898	0
0	16388	2599.646450475962	1
0	16490	2613.502613450425	0
0	16492	2613.941801713091	1
0	16503	2615.629637720863	0
0	16505	2616.018049485101	1
0	16546	2620.219672107478	0
0	16549	2621.221741255971	1
0	16585	2625.553223768413	0
0	16587	2626.040824734104	1
0	16598	2627.595679663014	0
0	16601	2628.947184687237	1
0	16618	2630.769720895699	0
0	16620	2631.202986153669	1
0	16647	2635.13144163094	0
0	16650	2635.402675764551	1
0	16660	2636.577059618903	0
0	16663	2636.843093388815	1
0	16686	2639.245290797177	0
0	16689	2639.822335842306	1
0	16699	2641.757473194572	0
0	16702	2642.347153921179	1
0	16715	2643.924549994369	0
0	16718	2644.383415986287	1
0	16731	2646.135524874525	0
0	16733	2646.673104215749	1
0	16775	2652.898494315726	0
0	16778	2654.814425056924	1
0	16788	2656.304474814268	0
0	16791	2657.100672411253	1
0	16802	2658.271115532726	0
0	16804	2658.341816521878	1
0	16815	2659.538917754819	0
0	16817	2660.612430529759	1
0	16818	2660.809905424389	0
0	16821	2663.181016396738	1
0	16822	2663.225866354934	0
0	16825	2663.264266013632	1
0	16829	2664.452255198595	0
0	16832	2664.460895647455	1
0	16837	2665.203079051539	0
0	16840	2665.281429867041	1
0	16850	2665.980392824287	0
0	16853	2666.097093711263	1
0	16856	2666.62043906746	0
0	16859	2666.907768047404	1
0	16868	2669.507607608004	0
0	16871	2671.778649751562	1
0	16872	2672.156153578798	0
0	16875	2672.318867546865	1
0	16880	2673.475792707037	0
0	16883	2674.275724364445	1
0	16884	2675.07101625986	0
0	16887	2675.401831194791	1
0	16893	2676.217666816914	0
0	16896	2676.59701875669	1
0	16901	2677.436180920099	0
0	16904	2678.089554561375	1
0	16927	2680.040704793699	0
0	16930	2680.113897534483	1
0	16940	2681.934185444854	0
0	16943	2683.125238049772	1
0	16994	2690.064237439609	0
0	16996	2690.585463867283	1
0	17037	2695.699908970926	0
0	17040	2696.157855248365	1
0	17045	2696.860576603815	0
0	17048	2697.409607619584	1
0	17049	2697.785461536343	0
0	17052	2698.409903456928	1
0	17053	2698.47492158989	0
0	17056	2700.009619236308	1
0	17102	2705.192535932593	0
0	17105	2705.81262200764	1
0	17122	2707.293278285168	0
0	17125	2707.419551899216	1
0	17130	2708.343451703553	0
0	17133	2708.847542161838	1
0	17138	2710.144904005277	0
0	17141	2710.481330945047	1
0	17146	2711.131348651058	0
0	17148	2712.094924642678	1
0	17151	2712.54223618572	0
0	17154	2712.546171075891	1
0	17182	2715.868114380786	0
0	17184	2716.083539012011	1
0	17251	2724.426805236184	0
0	17254	2724.652292346371	1
0	17259	2725.774183453629	0
0	17262	2726.055629413389	1
0	17265	2726.08531775027	0
0	17268	2726.327177422329	1
0	17277	2726.926609368252	0
0	17280	2727.037411101711	1
0	17288	2728.473776825269	0
0	17291	2728.676876199217	1
0	17294	2729.619930315683	0
0	17297	2730.47277432911	1
0	17350	2735.869174911304	0
0	17353	2736.921745407338	1
0	17369	2738.774712010025	0
0	17372	2738.918908597548	1
0	17381	2740.063086101304	0
0	17384	2742.613070388944	1
0	17393	2744.468786435389	0
0	17396	2745.00184818533	1
0	17407	2745.526284162262	0
0	17410	2746.652355256512	1
0	17411	2746.791253878687	0
0	17414	2747.465370019261	1
0	17454	2750.511385844411	0
0	17457	2751.465189563103	1
0	17472	2752.82282288167	0
0	17475	2752.893568267815	1
0	17476	2752.939919589224	0
0	17479	2752.945731029029	1
0	17483	2754.14917517244	0
0	17485	2755.864798713834	1
0	17486	2756.000844163813	0
0	17489	2756.872828864834	1
0	17490	2757.032870881163	0
0	17493	2757.737527617568	1
0	17498	2758.561433058158	0
0	17501	2758.93754160408	1
0	17502	2759.108495982116	0
0	17505	2759.175538680367	1
0	17508	2760.250009441835	0
0	17511	2760.903615249528	1
0	17515	2761.822007067973	0
0	17518	2762.478049570089	1
0	17523	2763.056711776897	0
0	17525	2763.201984372019	1
0	17544	2765.395940902234	0
0	17547	2766.202221092061	1
0	17548	2766.392513982563	0
0	17551	2767.648483525949	1
0	17563	2768.621002647302	0
0	17566	2769.398597237561	1
0	17585	2771.584238388193	0
0	17588	2771.931860546949	1
0	17613	2774.121219170921	0
0	17615	2775.084021304196	1
0	17616	2775.124686935301	0
0	17619	2775.767157268049	1
0	17630	2777.17701269866	0
0	17633	2777.361347286147	1
0	17634	2777.783647147004	0
0	17637	2778.205553968094	1
0	17644	2779.253478372521	0
0	17647	2779.360086138534	1
0	17652	2779.822696440919	0
0	17655	2780.417345237604	1
0	17660	2781.76470659389	0
0	17663	2782.415067091409	1
0	17664	2782.495329151534	0
0	17667	2783.155245017413	1
0	17682	2783.892151908464	0
0	17685	2785.67325472829	1
0	17694	2786.848719046848	0
0	17697	2787.253355763937	1
0	17704	2788.274801666149	0
0	17706	2788.668810811416	1
0	17743	2793.870425962141	0
0	17746	2794.110659775663	1
0	17756	2795.907024952034	0
0	17758	2796.572732189146	1
0	17766	2797.558639188709	0
0	17769	2798.095940709384	1
0	17772	2798.75618262507	0
0	17775	2800.891043161367	1
0	17785	2802.665027874966	0
0	17787	2803.502421995784	1
0	17798	2804.59778116757	0
0	17801	2805.405121523779	1
0	17818	2808.234834931842	0
0	17820	2808.284461901505	1
0	17830	2809.407537058688	0
0	17833	2811.707624798644	1
0	17843	2813.772517720768	0
0	17845	2813.772609738507	1
0	17857	2815.63579763943	0
0	17860	2816.073717019932	1
0	17861	2816.130681516855	0
0	17864	2816.261420801658	1
0	17883	2819.387881324647	0
0	17885	2819.932829633101	1
0	17903	2823.938098037946	0
0	17906	2824.43846842542	1
0	17921	2825.663084821855	0
0	17924	2825.795197272056	1
0	17925	2826.067527017934	0
0	17928	2827.297925467479	1
0	17938	2829.968054909333	0
0	17940	2829.98019463105	1
0	17953	2831.63446705434	0
0	17956	2831.86844424523	1
0	17977	2834.647556552421	0
0	17979	2835.770887862893	1
0	17984	2835.923409035964	0
0	17987	2836.837787950441	1
0	17990	2837.63527839573	0
0	17992	2839.063734303031	1
0	18004	2840.676376504696	0
0	18007	2843.800124145847	1
0	18013	2844.853315574699	0
0	18015	2845.272928556946	1
0	18069	2850.912162771262	0
0	18071	2854.021082262358	1
0	18076	2854.808385061523	0
0	18079	2855.135339493192	1
0	18082	2855.863681267324	0
0	18084	2856.366778044988	1
0	18091	2857.346193046917	0
0	18094	2857.667639283621	1
0	18097	2858.260131857522	0
0	18099	2858.358128067348	1
0	18138	2862.665785287865	0
0	18141	2862.789889594573	1
0	18145	2863.326007740464	0
0	18148	2863.890489180576	1
0	18151	2864.301779299702	0
0	18154	2864.929866338256	1
0	18159	2866.236473082849	0
0	18161	2867.008352035887	1
0	18162	2867.300033102534	0
0	18165	2868.699901683188	1
0	18175	2870.709679548505	0
0	18178	2871.340771764722	1
0	18188	2873.641580045156	0
0	18190	2873.656802715131	1
0	18202	2875.653808025841	0
0	18204	2875.943547202299	1
0	18214	2877.186854302931	0
0	18217	2877.458589339351	1
0	18227	2878.273397199531	0
0	18230	2878.306185793496	1
0	18235	2878.905606798351	0
0	18237	2879.210350729889	1
0	18259	2882.026470031617	0
0	18261	2882.110762309513	1
0	18266	2882.338965581576	0
0	18269	2882.499771191858	1
0	18278	2884.176478554476	0
0	18280	2884.188573005193	1
0	18287	2884.491344321701	0
0	18290	2885.469512439542	1
0	18297	2887.280461737099	0
0	18299	2887.531250075371	1
0	18318	2889.331019018868	0
0	18321	2889.555657758669	1
0	18337	2892.046872794073	0
0	18339	2893.232563175416	1
0	18357	2895.498475176085	0
0	18360	2896.685875668972	1
0	18497	2913.238779946219	0
0	18500	2914.257953058505	1
0	18507	2916.158929161895	0
0	18510	2916.871343051843	1
0	18513	2917.506766191091	0
0	18515	2919.06968220319	1
0	18523	2920.162188072508	0
0	18526	2921.124310596853	1
0	18531	2921.605019314763	0
0	18534	2923.058521156207	1
0	18541	2923.681977628713	0
0	18544	2924.621175486223	1
0	18547	2925.214996558157	0
0	18549	2925.816561022131	1
0	18553	2927.08637303468	0
0	18556	2931.843793164209	1
0	18563	2933.607858609828	0
0	18565	2937.548601727658	1
0	18572	2938.159283022568	0
0	18575	2938.931578999631	1
0	18580	2939.593323537369	0
0	18582	2939.982245437247	1
0	18589	2941.175629919859	0
0	18592	2943.917627406495	1
0	18597	2944.419116766619	0
0	18599	2945.508938438846	1
0	18603	2946.697592345031	0
0	18606	2947.371846392718	1
0	18619	2949.187775872498	0
0	18621	2950.044961406941	1
0	18635	2951.37973317956	0
0	18637	2951.886436589632	1
0	18646	2952.551841130628	0
0	18649	2953.162706231076	1
0	18658	2955.208012696509	0
0	18661	2956.349240793621	1
0	18666	2957.069606334594	0
0	18669	2957.260581933644	1
0	18680	2960.027194215927	0
0	18683	2960.216099013693	1
0	18688	2960.381399403882	0
0	18691	2960.475667342417	1
0	18694	2960.576861802918	0
0	18697	2960.770129110463	1
0	18704	2961.505951756422	0
0	18707	2961.619320912542	1
0	18722	2963.429171910467	0
0	18725	2963.846845229865	1
0	18763	2969.434636426495	0
0	18765	2969.4847677461	1
0	18766	2969.565090262323	0
0	18769	2970.282909994387	1
0	18782	2972.574156831191	0
0	18785	2973.093827624993	1
0	18795	2973.822694405998	0
0	18798	2974.429044280262	1
0	18799	2974.438947654538	0
0	18802	2976.448956641989	1
0	18803	2976.943936409868	0
0	18806	2980.068356304163	1
0	18814	2981.210706518956	0
0	18816	2981.351119589075	1
0	18817	2981.450598893093	0
0	18820	2982.05717490961	1
0	18832	2984.594040940211	0
0	18835	2985.003520304962	1
0	18838	2985.499610246543	0
0	18841	2985.835388576254	1
0	18850	2986.399571119215	0
0	18853	2987.005118036028	1
0	18856	2987.111644195996	0
0	18859	2987.260996042713	1
0	18871	2988.32875032125	0
0	18874	2988.687938372706	1
0	18875	2988.949542368486	0
0	18878	2991.01728468219	1
0	18897	2993.810329775589	0
0	18899	2993.839466004649	1
0	18979	3004.338524450502	0
0	18982	3004.357277304934	1
0	18994	3005.9244940553	0
0	18997	3007.156367993907	1
0	19019	3009.658549286895	0
0	19022	3010.353187012334	1
0	19035	3011.792731724553	0
0	19038	3011.982178790989	1
0	19048	3013.209910105732	0
0	19051	3013.252111889078	1
0	19060	3014.760073876271	0
0	19063	3015.103672341905	1
0	19075	3016.726559012278	0
0	19077	3017.592613633646	1
0	19091	3019.29739890945	0
0	19093	3019.644543882503	1
0	19127	3024.905597989166	0
0	19130	3025.019316459137	1
0	19158	3028.745982586212	0
0	19160	3028.806246800044	1
0	19161	3028.811945280633	0
0	19164	3028.972668410571	1
0	19178	3030.095109438765	0
0	19181	3030.274430599515	1
0	19182	3030.913042336493	0
0	19185	3031.176991707092	1
0	19195	3032.654724766154	0
0	19197	3032.679639507069	1
0	19222	3036.882749073094	0
0	19225	3039.070040071622	1
0	19235	3040.507300827178	0
0	19238	3041.855100189061	1
0	19241	3042.621710344097	0
0	19244	3043.627320136617	1
0	19254	3045.174903024146	0
0	19256	3046.537479253161	1
0	19259	3047.404840858223	0
0	19262	3048.46676479061	1
0	19278	3051.73644750218	0
0	19281	3052.468589387301	1
0	19288	3053.564683838458	0
0	19291	3054.260808639786	1
0	19315	3057.775241062297	0
0	19317	3058.478168607597	1
0	19329	3060.125597864987	0
0	19331	3060.755162330206	1
0	19340	3061.719988342987	0
0	19343	3062.650721362506	1
0	19353	3063.954635604702	0
0	19355	3064.586571436257	1
0	19356	3065.041682607312	0
0	19359	3065.068110241917	1
0	19375	3066.815089079157	0
0	19378	3067.331463174089	1
0	19390	3068.91350894546	0
0	19393	3069.776796704297	1
0	19404	3072.193113758028	0
0	19407	3072.292562567253	1
0	19427	3075.981848357561	0
0	19430	3077.731138778206	1
0	19448	3081.053475637689	0
0	19450	3081.866010356803	1
0	19459	3083.239299771905	0
0	19461	3083.509276374353	1
0	19479	3087.199754398776	0
0	19481	3088.321810552269	1
0	19495	3089.687545568749	0
0	19498	3089.71081714792	1
0	19595	3100.486752141349	0
0	19597	3100.952406617792	1
0	19613	3103.392210215556	0
0	19615	3103.841382565597	1
0	19626	3106.122380313391	0
0	19628	3108.405114736283	1
0	19641	3109.720950780157	0
0	19643	3110.032157836192	1
0	19653	3111.514228995363	0
0	19655	3111.710542581473	1
0	19670	3114.848218928987	0
0	19672	3116.228692737146	1
0	19683	3118.10954487739	0
0	19685	3118.137278644975	1
0	19709	3120.344695003601	0
0	19712	3122.024567131341	1
0	19730	3124.303722308369	0
0	19733	3125.832189558875	1
0	19738	3126.983191597357	0
0	19740	3127.413998264815	1
0	19747	3128.192880045876	0
0	19749	3128.861369742912	1
0	19759	3129.903813888099	0
0	19762	3130.080422710551	1
0	19771	3130.778127061485	0
0	19773	3131.3074817231	1
0	19776	3132.166711911355	0
0	19778	3132.300040217664	1
0	19806	3137.33994686077	0
0	19809	3141.842226540048	1
0	19816	3143.272989297572	0
0	19818	3143.840765867684	1
0	19823	3144.463117567576	0
0	19826	3144.68461552317	1
0	19831	3146.096085938204	0
0	19834	3147.041940321183	1
0	19838	3148.053637188403	0
0	19840	3149.506672610392	1
0	19845	3150.247334900216	0
0	19848	3151.046412860608	1
0	19855	3152.526360494905	0
0	19858	3152.969941954352	1
0	19888	3156.189740816	0
0	19891	3156.937088533785	1
0	19901	3158.017952477735	0
0	19904	3158.777041985425	1
0	19917	3160.55674574747	0
0	19920	3160.687544148937	1
0	19933	3162.497270473096	0
0	19935	3164.437091411874	1
0	19964	3167.524083937581	0
0	19966	3170.291412011399	1
0	20003	3175.535774229641	0
0	20005	3175.569047389679	1
0	20018	3178.100177057149	0
0	20021	3178.38716500143	1
0	20041	3181.984016288492	0
0	20043	3182.070833023479	1
0	20052	3183.636512166226	0
0	20055	3184.040551510955	1
0	20064	3184.820290033711	0
0	20066	3185.377327285736	1
0	20109	3189.920249812686	0
0	20111	3190.648239509335	1
0	20116	3191.486383444112	0
0	20118	3192.137584781812	1
0	20121	3192.286730940336	0
0	20124	3192.807789884907	1
0	20139	3194.748973751927	0
0	20142	3194.750603053833	1
0	20150	3196.950942796432	0
0	20153	3197.630973188973	1
0	20201	3203.607362780298	0
0	20203	3205.522300706947	1
0	20214	3207.860889016614	0
0	20217	3208.106861191713	1
0	20222	3208.643351392727	0
0	20225	3208.66691163125	1
0	20238	3210.734250555364	0
0	20240	3211.70729052645	1
0	20250	3213.773643301091	0
0	20253	3214.539474732169	1
0	20263	3216.145873275602	0
0	20265	3216.466636304373	1
0	20283	3217.907613905738	0
0	20286	3218.464886791257	1
0	20293	3220.201515948546	0
0	20295	3220.242785735021	1
0	20302	3221.154574237615	0
0	20304	3224.407135202534	1
0	20309	3225.107032696801	0
0	20312	3225.908159961615	1
0	20356	3231.801691102912	0
0	20359	3231.907166825753	1
0	20383	3234.44689926129	0
0	20386	3235.185598805585	1
0	20442	3241.755522585182	0
0	20445	3242.521272598698	1
0	20453	3244.415619911494	0
0	20455	3245.538512681913	1
0	20471	3246.969631573603	0
0	20474	3247.957895775596	1
0	20483	3248.949870694733	0
0	20485	3251.424204186	1
0	20494	3252.998324460052	0
0	20496	3253.296364745355	1
0	20509	3255.091294005589	0
0	20512	3255.448213030944	1
0	20524	3257.311094120075	0
0	20526	3257.598767965203	1
0	20538	3259.024470073213	0
0	20540	3259.379139949935	1
0	20545	3260.228007851652	0
0	20547	3260.440912610265	1
0	20563	3261.369332587992	0
0	20566	3261.981381580143	1
0	20571	3263.138781328183	0
0	20573	3263.630783877975	1
0	20578	3264.587776004847	0
0	20580	3264.66704716756	1
0	20585	3265.81213595362	0
0	20587	3266.428006345478	1
0	20609	3270.311725164013	0
0	20612	3270.401660910689	1
0	20617	3271.913079301357	0
0	20619	3271.952599576435	1
0	20642	3275.630107708195	0
0	20645	3275.830415644319	1
0	20658	3278.342023042998	0
0	20660	3279.701770969665	1
0	20668	3281.286582376984	0
0	20671	3281.60427928993	1
0	20681	3283.101597103556	0
0	20684	3283.134185515521	1
0	20693	3284.679603975619	0
0	20696	3285.315863206504	1
0	20709	3286.32389343734	0
0	20712	3286.547491810287	1
0	20733	3289.24943626845	0
0	20735	3289.261703125214	1
0	20743	3290.27114604351	0
0	20745	3291.055958794115	1
0	20753	3291.894390580946	0
0	20756	3292.009980562934	1
0	20768	3294.098572329111	0
0	20771	3294.161337236579	1
0	20780	3294.845445294091	0
0	20783	3295.171960752536	1
0	20788	3295.490639572874	0
0	20791	3296.711493108415	1
0	20804	3297.923468624773	0
0	20806	3300.442979827796	1
0	20815	3301.597304180125	0
0	20817	3301.621680545177	1
0	20837	3303.204129198123	0
0	20840	3305.88605249179	1
0	20846	3306.972677301294	0
0	20848	3307.847310157615	1
0	20855	3308.542070584647	0
0	20857	3308.74584451133	1
0	20863	3309.898847502749	0
0	20866	3310.86975286963	1
0	20875	3311.336734368688	0
0	20878	3311.844341875149	1
0	20886	3313.379035212096	0
0	20888	3313.441136245945	1
0	20891	3313.725901435956	0
0	20894	3314.631889405832	1
0	20901	3315.494349711719	0
0	20903	3316.760462189223	1
0	20915	3318.792078683585	0
0	20917	3319.054846309052	1
0	20922	3319.670189459523	0
0	20924	3319.762352654582	1
0	20934	3320.434986114122	0
0	20937	3320.650728479535	1
0	20943	3321.862690582832	0
0	20946	3325.397762126616	1
0	20953	3326.068547681891	0
0	20956	3326.421260799037	1
0	21016	3335.973423015585	0
0	21018	3336.573945099598	1
0	21029	3338.647935170935	0
0	21032	3338.821331245527	1
0	21062	3342.242528854876	0
0	21064	3342.451941162439	1
0	21090	3346.709378882992	0
0	21092	3347.277365339307	1
0	21103	3348.884719465566	0
0	21105	3349.195153294112	1
0	21149	3356.18603095678	0
0	21151	3356.788152908341	1
0	21169	3359.88993671125	0
0	21172	3359.989325509489	1
0	21184	3361.502576777963	0
0	21187	3362.293565696526	1
0	21199	3363.96485927093	0
0	21202	3365.247357866427	1
0	21223	3367.226902137429	0
0	21226	3367.515527581946	1
0	21231	3368.217246082913	0
0	21233	3368.904821420481	1
0	21247	3370.749623496946	0
0	21250	3371.109347059405	1
0	21261	3372.088776522071	0
0	21264	3372.260184236548	1
0	21276	3374.373443819825	0
0	21279	3376.607645425916	1
0	21297	3379.215708899438	0
0	21300	3379.607907099585	1
0	21319	3381.50497508803	0
0	21321	3382.382899408638	1
0	21360	3388.322365981913	0
0	21363	3388.49993541114	1
0	21391	3392.499881771815	0
0	21394	3393.307206774883	1
0	21411	3395.180912711487	0
0	21414	3395.24532113993	1
0	21436	3400.056234427579	0
0	21439	3400.067414450473	1
0	21454	3402.915329626976	0
0	21457	3403.182095648067	1
0	21480	3405.969462861808	0
0	21483	3407.702817329472	1
0	21495	3408.658562583323	0
0	21498	3408.786753529728	1
0	21509	3410.568746579808	0
0	21512	3411.036523933105	1
0	21523	3413.154135744678	0
0	21526	3413.164397235995	1
0	21539	3416.058589875627	0
0	21542	3416.450127765405	1
0	21552	3418.774448356822	0
0	21555	3419.300038367071	1
0	21567	3420.434133505714	0
0	21570	3420.845967015703	1
0	21581	3421.77229664471	0
0	21584	3425.14115366046	1
0	21634	3430.921586021894	0
0	21637	3431.568730714497	1
0	21648	3432.900073042005	0
0	21650	3433.261130331254	1
0	21658	3434.181777079696	0
0	21661	3434.613090112941	1
0	21662	3434.848254342897	0
0	21665	3435.346442608653	1
0	21675	3436.593223548579	0
0	21678	3437.408181522783	1
0	21681	3437.781206929883	0
0	21684	3438.008775341334	1
0	21688	3439.850389944981	0
0	21690	3441.428823835514	1
0	21707	3442.976189001066	0
0	21710	3443.018581717349	1
0	21735	3446.760195204227	0
0	21738	3447.004660617964	1
0	21762	3449.097715359345	0
0	21764	3449.909791411741	1
0	21765	3450.728155605957	0
0	21768	3452.78468566497	1
0	21783	3454.02650342879	0
0	21785	3455.486674436265	1
0	21788	3455.879055060377	0
0	21791	3456.049755902035	1
0	21797	3457.32696866099	0
0	21799	3458.655939158237	1
0	21808	3460.866838013994	0
0	21810	3461.094295609047	1
0	21811	3461.493520067052	0
0	21814	3462.137266626513	1
0	21827	3463.370233394544	0
0	21829	3463.645301034823	1
0	21832	3463.785545738083	0
0	21835	3463.892854695494	1
0	21848	3465.181055079789	0
0	21851	3465.32094676539	1
0	21865	3466.880254609804	0
0	21868	3466.978825664643	1
0	21881	3468.345403605119	0
0	21884	3469.842929675761	1
0	21893	3470.332397902376	0
0	21896	3474.004634344487	1
0	21903	3474.554165202409	0
0	21905	3474.777341711256	1
0	21910	3474.983398746521	0
0	21913	3477.738699494293	1
0	21920	3479.720229142424	0
0	21922	3480.088960818385	1
0	21927	3481.332192906797	0
0	21929	3482.615704354026	1
0	21934	3483.267956764898	0
[...]
17	14337	2277.770218059446	8.208692667916
17	14350	2279.601345281158	27.607336528244
17	14364	2280.437288546951	13.4337694466
17	14380	2282.545988788917	9.026292688561
17	14400	2283.964484213009	40.785002563626
17	14418	2285.137251777653	11.50453496371
17	14433	2287.341417000074	11.227589555394
17	14443	2288.774557251497	8.116875937129
17	14458	2290.382458780317	9.491564505655
17	14469	2291.543739635948	24.540220535597
17	14486	2293.179938772625	9.786008771232
17	14509	2299.133993543598	25.501276729655
17	14518	2300.059688406126	11.10280393424
17	14545	2303.841472559098	23.18379124473
17	14564	2305.207682981738	13.568794361162
17	14573	2306.861056994847	14.107271630348
17	14584	2308.518084123029	19.561199651143
17	14602	2310.164943254198	6.026981438529
17	14616	2312.024698304122	31.367016989754
17	14631	2313.855466159806	9.139606481767
17	14645	2318.414440729553	26.775552108977
17	14657	2320.096907791201	31.140023319315
17	14671	2321.716632611279	12.120808706126
17	14688	2326.184151870005	13.992807565126
17	14708	2328.10470005106	23.388840373021
17	14717	2329.017104559725	37.378215939149
17	14730	2329.891214112096	40.93432964021
17	14744	2331.387138895144	10.044846138993
17	14763	2334.430748684936	12.942608052953
17	14782	2335.961111641048	26.365287735895
17	14796	2338.14986502141	8.664530545413
17	14811	2342.975245676988	8.233249033992
17	14826	2346.688719513954	37.092895608801
17	14843	2350.658749009617	7.749093453743
17	14861	2357.328546074632	22.586549431636
17	14875	2359.639687059427	16.730031503553
17	14887	2361.132972814357	26.390976171361
17	14910	2363.17668383036	28.434687187364
17	14927	2365.524688657872	2.647696670038
17	14939	2367.407350418595	32.665353775599
17	14980	2373.097272328712	3.826913490469
17	14997	2375.087063532216	4.53878911358
17	15020	2379.571533086676	6.297549735753
17	15032	2381.43577825016	4.677456123901
17	15078	2393.678773030871	0.596793183275
17	15098	2397.262778022428	1.614308624851
17	15134	2403.807777279309	3.333835504262
17	15157	2407.332011637477	0.689027763338
17	15230	2419.292765824268	2.423311396903
17	15246	2420.651768923486	1.364966535793
17	15258	2424.372712178152	4.876125853319
17	15269	2428.684176512853	9.39737412516
17	15284	2432.470489957468	12.973903632635
17	15312	2436.851995992113	17.56519360442
17	15329	2438.230648275791	3.417366873872
17	15345	2440.283719084074	3.50935462711
17	15357	2441.82677483986	22.539972452167
17	15368	2443.512735975822	5.542715663034
17	15384	2447.412733733793	12.599452331874
17	15400	2448.707606374971	29.420803987278
17	15412	2450.160824059329	6.316842261744
17	15499	2466.098160943699	2.588773541684
17	15516	2468.584728975758	5.075341573743
17	15541	2472.233127862567	8.723740460552
17	15610	2487.141217124257	1.183141758461
17	15629	2489.049129964683	3.0630850812
17	15641	2491.407071541193	4.827453428053
17	15664	2493.03887876215	7.052833878667
17	15681	2494.869455463939	8.289837350799
17	15703	2498.659585201967	6.184294665393
17	15721	2502.186366124517	16.200321241034
17	15737	2506.213798537902	12.02394402509
17	15755	2508.317756980844	21.738138867704
17	15773	2515.356142929099	22.880852392525
17	15788	2516.362894939142	14.611621839387
17	15800	2517.997176386416	32.011131502933
17	15814	2519.858774540456	33.279156427316
17	15828	2521.804298550615	29.329008014041
17	15837	2522.868462631367	21.117189531612
17	15848	2524.413873135519	6.204568438631
17	15864	2526.374244920727	39.794626807587
17	15872	2528.807704574353	36.332414037779
17	15881	2530.803176716876	12.593872019988
17	15913	2535.658422896256	0.356321074666
17	15929	2537.240473502328	1.938371680738
17	16039	2553.178142977471	0.393768006945
17	16049	2554.774268850816	1.98989388029
17	16074	2557.402673273614	4.618298303088
17	16086	2558.542944927752	1.147294651402
17	16095	2560.060902085623	2.665251809273
17	16117	2561.973553200398	0.706421503739
17	16133	2563.113990342565	1.36572298684
17	16152	2564.546397826802	0.563380444002
17	16166	2565.613695737302	0.706574419798
17	16180	2567.973952680764	2.970278119111
17	16194	2569.835942120286	4.928820802782
17	16208	2571.570262072874	4.054801475126
17	16222	2573.079409316267	3.256695434512
17	16239	2574.461379224547	9.554257907043
17	16250	2577.645378719031	10.129918121283
17	16262	2580.091292684233	7.48971172105
17	16274	2581.354511809333	7.417664507801
17	16291	2583.241488509355	6.138990532741
17	16307	2585.537047483946	5.085783394205
17	16318	2587.363936083633	13.427088782101
17	16332	2590.177623235673	7.955405140094
17	16351	2593.253317826266	12.802053736525
17	16367	2597.509381152662	23.57253385113
17	16383	2599.123004148191	10.263826180728
17	16408	2601.808707834546	21.357443744805
17	16417	2603.411591756477	4.342024024375
17	16437	2605.694164900247	4.896812825638
17	16449	2607.607956058184	27.156691968443
17	16464	2609.454502590025	10.384934857923
17	16472	2610.861652684588	6.742393911259
17	16485	2612.502613450425	7.544353559748
17	16498	2614.629637720863	13.832285646254
17	16511	2617.054768360594	8.470028394883
17	16524	2618.807921565211	7.842700015899
17	16542	2619.79205685897	15.672798085641
17	16555	2621.89924413628	16.940984245603
17	16572	2623.376499143067	10.007116705029
17	16583	2624.553223768413	9.559088919203
17	16592	2626.732662407693	25.935310333084
17	16610	2630.097294909267	12.778266419716
17	16628	2633.35098020691	24.766240241199
17	16641	2634.550089693075	11.734606960841
17	16657	2636.408701344633	21.414566495423
17	16674	2638.166861180031	8.71989242723
17	16694	2640.508960382269	9.746104833703
17	16709	2643.278170422231	8.400936853102
17	16725	2645.440512169887	8.344205949307
17	16748	2649.312962138658	11.753397215975
17	16757	2651.296864464605	21.849895711804
17	16772	2652.397120073681	13.476497307922
17	16783	2655.79315294706	12.958119855382
17	16798	2657.771115532726	12.536860668762
17	16811	2659.038917754819	21.479352832136
17	16828	2664.040210995665	11.814941020529
17	16848	2665.965885845694	27.045263079935
17	16867	2669.057989900115	12.787519006833
17	16879	2673.45895247908	15.356978135087
17	16892	2676.15584692244	30.921592058476
17	16917	2679.54931907894	20.332397527935
17	16933	2681.15645844776	43.596893525077
17	16956	2684.334987784965	18.766049889111
17	16967	2685.925631679931	17.70004931094
17	16980	2687.612463796007	18.654294275986
17	16989	2688.679819046553	23.110881150699
17	17005	2691.428059524814	23.202477155823
17	17019	2692.612339618355	23.654170098334
17	17028	2694.380300652711	25.42213113269
17	17074	2701.986655965337	0.771546948462
17	17090	2703.888856710446	1.986645888787
17	17099	2705.084109360657	3.869000343782
17	17117	2707.08622356193	0.56288627126
17	17178	2715.368114380786	1.002626110465
17	17202	2717.946235075313	2.439867294701
17	17216	2719.880218076686	5.514729806365
17	17231	2720.84912135261	2.924202218883
17	17237	2723.110270436351	4.075270028759
17	17249	2724.097889682967	3.75251854576
17	17263	2726.070715834801	11.70522756448
17	17283	2727.689781609025	9.764862475298
17	17306	2731.460281843033	4.633457642995
17	17330	2733.27421759658	5.76085362096
17	17340	2734.814292235539	16.889373101812
17	17360	2737.7314697554	6.224436111718
17	17375	2739.583707069407	12.756882869369
17	17389	2743.450067012822	8.616076829213
17	17401	2745.271508078625	27.346588944898
17	17415	2747.471312003915	9.589121371972
17	17431	2749.187198341951	11.072212197695
17	17444	2750.178013441423	18.670979797741
17	17460	2751.528692850292	12.803505333729
17	17480	2753.14917517244	18.315184988831
17	17494	2757.847679283166	9.137080026331
17	17512	2761.185430582134	23.070444437878
17	17526	2763.41298190916	24.687794392597
17	17541	2765.096838292878	30.262848109269
17	17554	2767.856831554761	29.741845410505
17	17577	2770.562734457455	32.447748313199
17	17595	2772.44082870931	34.325842565054
17	17607	2773.612593337776	1.561920948631
17	17628	2776.405747878521	3.824096365528
17	17640	2778.867620819268	3.046101367862
17	17658	2780.974595942117	4.729931474126
17	17672	2783.331031221145	10.749379708152
17	17690	2786.406029902105	10.161365434114
17	17726	2790.752771108942	0.918166490038
17	17737	2792.615191579011	2.502021767922
17	17749	2794.907024952034	4.793855140945
17	17763	2796.865184546557	1.662269839121
17	17780	2801.665027874966	11.551858063877
17	17794	2804.111594938554	8.908680231118
17	17812	2806.881200147808	16.768030336719
17	17825	2808.535032161882	1.748999217352
17	17838	2812.272517720768	3.850317098012
17	17848	2814.491078729365	6.068878106609
17	17871	2818.260646819822	2.972774223252
17	17894	2822.900122708294	4.481056444685
17	17909	2824.744465066422	6.325398802813
17	17974	2834.017761424022	1.938858175501
17	17999	2839.891670323316	0.482326276449
17	18041	2847.741547618702	0.901533136254
17	18053	2849.405270183906	1.947735141371
17	18065	2850.411302861638	0.93386818133
17	18111	2860.165306037302	0.344641396811
17	18126	2861.603978367031	1.041436076134
17	18172	2869.607047896177	4.380021006723
17	18185	2872.141580045156	6.914553155702
17	18195	2874.326427173781	2.219830646451
17	18209	2876.695287895496	11.468261006042
17	18220	2877.609802323652	1.199900970485
17	18275	2883.605459530053	1.366495745091
17	18306	2888.187797409781	2.212395440217
17	18376	2898.691912089366	1.907291532229
17	18396	2900.809861308094	3.097706213924
17	18407	2902.061453859207	5.27683330207
17	18421	2903.494736973685	3.983452829455
17	18435	2905.408519806641	4.996391587982
17	18448	2907.11124768425	7.59996354002
17	18462	2908.771261043532	9.259976899302
17	18476	2910.632185536752	11.120901392522
17	18486	2912.374996558827	12.863712414597
17	18503	2914.867832949593	1.837889156365
17	18613	2948.423243732097	0.1106091215
17	18677	2959.371624820415	1.46806444306
17	18719	2963.307269100468	1.079845171339
17	18733	2964.992313147888	0.359749501281
17	18745	2966.929949778766	0.838749917872
17	18760	2968.434636426495	2.343436565601
17	18778	2971.513933856855	5.422733995961
17	18788	2973.289629738484	2.709458418938
17	18807	2980.210706518956	14.119506658062
17	18825	2983.865218245278	13.285046925732
17	18842	2985.953845510658	5.471565114205
17	18862	2987.372299706757	21.281099845863
17	18881	2992.119737001852	7.910778422577
17	18900	2994.232779771556	23.65260845201
17	18915	2995.477510294147	29.386310433253
17	18932	2997.712726876364	4.112588801879
17	18949	3000.026526317547	6.249580792055
17	18964	3001.799293647358	31.219122327812
17	18976	3003.832452579893	37.741252718999
17	18986	3005.28673869047	8.444829734755
17	19006	3007.762460392411	10.640202670998
17	19016	3009.397225956628	10.993731390108
17	19031	3011.115538158916	11.716391424079
17	19045	3012.578641731105	11.34150259505
17	19066	3015.718022399348	13.485279694576
17	19082	3018.308649841307	47.728478521761
17	19100	3020.741122652637	17.21403250962
17	19111	3022.684774667352	56.593574806458
17	19122	3024.300983292516	27.178725571103
17	19133	3025.450996434557	26.05184969972
17	19143	3027.127870494354	25.890731358299
17	19155	3028.232023094121	13.597486513248
17	19169	3029.422841929242	9.025008995226
17	19190	3031.654724766154	9.031486508355
17	19205	3034.431184927284	68.33998506639
17	19217	3035.781763438403	6.175331444357
17	19230	3040.004329860604	19.606496926588
17	19249	3044.572755477221	21.949517219422
17	19271	3051.207607710817	15.699135306328
17	19296	3054.794984900596	25.18855290655
17	19312	3056.94798548852	16.939357876597
17	19323	3059.214179721158	10.447744380443
17	19336	3061.215211943328	11.242065418467
17	19348	3063.311914513967	10.411582084301
17	19370	3066.438014987745	12.027509929262
17	19385	3068.317747244537	38.711315250491
17	19400	3071.329963042848	12.119561345729
17	19411	3073.980989776514	8.844859685539
17	19423	3075.434295483038	9.941299994181
17	19442	3080.053475637689	13.606541706605
17	19455	3082.423046009492	52.816614015446
17	19473	3086.66361050957	15.03214128079
17	19487	3088.84136763083	29.630965933711
17	19512	3091.289803327676	26.153673236701
17	19524	3092.215142018611	14.347161392175
17	19536	3094.083534748938	15.900571699987
17	19556	3096.347465554849	17.919959410164
17	19582	3098.234275791366	31.787341860282
17	19590	3099.486752141349	14.306401228585
17	19603	3102.392210215556	12.444871791367
17	19623	3105.122380313391	39.986250222416
17	19633	3108.997050474353	15.305032511439
17	19649	3110.874343071838	32.691380022887
17	19666	3113.989616142927	19.387775291227
17	19676	3117.10954487739	19.883436693368
17	19692	3118.311151862676	20.761505219188
17	19705	3119.740489696157	34.560138783393
17	19722	3123.089085421709	21.486017114576
17	19734	3126.133506519448	23.696126664782
17	19750	3128.961528528045	39.014190103856
17	19763	3130.240922805067	25.696901955993
17	19783	3133.223565969509	68.087435878534
17	19791	3135.723565969509	26.629296951469
17	19802	3136.915925264044	27.820657242582
17	19819	3144.208499350913	32.389931547654
17	19835	3147.053637188403	49.827529004381
17	19849	3151.343892554485	33.727319551892
17	19861	3153.433591666678	35.578688968596
17	19882	3155.431709227483	36.204296811902
17	19895	3157.638804593614	34.978621297615
17	19923	3160.883159299854	59.280090992721
17	19952	3166.415832447265	38.527447445116
17	19971	3170.91883462384	80.971496199651
17	19986	3172.919653500549	107.78352340957
17	19999	3174.731636482184	32.757207279584
17	20012	3177.372952035897	34.457494050939
17	20036	3181.3689826195	35.903801985404
17	20048	3183.014750408189	85.788642224167
17	20060	3184.29083523028	66.674262227687
17	20073	3186.199645492816	68.344742794734
17	20087	3187.94412399912	33.646027572359
17	20101	3188.877770744162	30.062686952286
17	20112	3190.853497743279	30.687364276541
17	20129	3193.444831269215	32.695395334509
17	20143	3195.334646677448	93.731578370315
17	20154	3197.643719268339	32.506312470386
17	20172	3199.434542956124	33.318365331545
17	20184	3200.972577420826	34.323128320342
17	20198	3203.057757746566	32.438050617915
17	20210	3207.348298449747	117.40096002556
17	20228	3209.806891428504	37.655803135708
17	20243	3212.258969572259	147.12283948128
17	20254	3214.84131263989	36.917268339946
17	20266	3216.670391128367	37.15795642513
17	20279	3217.608299563838	36.744025441068
17	20296	3220.340208734855	123.11410055083
17	20313	3226.112803390728	40.213159327363
17	20328	3227.701320528717	109.84641783063
17	20340	3229.635442027431	42.216910013753
17	20352	3231.385012596511	70.635576661805
17	20375	3233.161469744405	37.620470641115
17	20389	3235.634764222126	134.03169591499
17	20402	3237.25476292144	72.117356123487
17	20425	3238.885419486759	40.500413316831
17	20432	3241.030859838073	74.914682213494
17	20446	3242.980593170947	41.690907943941
17	20464	3246.22818430573	181.09205421475
17	20475	3247.997014613184	68.484579909947
17	20491	3252.492393108871	65.073861095193
17	20503	3254.33333044536	22.064873647764
17	20518	3256.617232305712	21.324492789221
17	20533	3258.024470073213	20.94890123665
17	20548	3260.477210679561	21.989877220594
17	20567	3262.571280034276	64.186273864348
17	20581	3265.040288886737	19.427048229659
17	20598	3268.381505461206	22.27963221381
17	20606	3269.612513664584	21.10968488323
17	20624	3272.771232592409	20.581383567635
17	20635	3274.467280388679	42.198823591083
17	20650	3276.345559755767	20.729718521488
17	20661	3280.160809603991	43.085240767428
17	20674	3281.977409544584	23.292901918904
17	20687	3283.495140178415	45.007806719448
17	20703	3285.988711434452	37.485882653098
17	20720	3287.658473414215	35.468624389441
17	20736	3289.27114604351	12.947273992841
17	20750	3291.680461803418	36.064620569139
17	20760	3292.967621772618	55.892052936055
17	20772	3294.281915949377	35.597408323697
17	20798	3297.413309878831	58.925976419864
17	20811	3301.048290299172	15.489274384602
17	20826	3302.303017050501	50.113168025727
17	20841	3305.972677301294	17.778651255849
17	20860	3309.340276258648	33.016404207979
17	20883	3312.379035212096	75.303466375533
17	20895	3314.879384363709	12.490853595688
17	20912	3317.792078683585	65.602229658811
17	20925	3319.784628327599	31.590602282154
17	20940	3321.170612334816	12.752387310403
17	20959	3328.43399252301	52.110120472341
17	20969	3330.352262398268	18.298168598325
17	20983	3331.200459684709	94.124890848146
17	20997	3333.300687530877	81.110838506103
17	21008	3334.973423015585	46.77939697014
17	21024	3337.697997626823	29.27977260241
17	21039	3339.719093190536	63.395221139867
17	21057	3341.635717070796	11.26478667075
17	21071	3344.214135088794	11.271136687656
17	21084	3346.175553597314	12.470906533419
17	21099	3347.884719465566	59.690693420121
17	21111	3350.989482428855	14.015923123469
17	21124	3352.084651622616	43.666426598203
17	21137	3353.235440641526	76.911568590857
17	21146	3355.417923291418	15.116022841624
17	21157	3358.643166261424	18.331925844029
17	21175	3360.311042603197	27.368044202059
17	21188	3362.686407034167	74.492380988722
17	21205	3365.59567414846	13.428399921981
17	21219	3366.355312268069	90.0314402174
17	21236	3369.609326493637	29.298086076242
17	21251	3371.238599261567	11.412455232864
17	21269	3373.849016099252	4.531854731467
17	21284	3377.562449897505	6.192876832861
17	21301	3379.780569375781	2.827963375818
17	21315	3380.691721486085	2.950140197614
17	21330	3385.062645152631	13.693072087987
17	21344	3386.438500936692	7.66545571792
17	21356	3387.942849190897	2.264193662646
17	21379	3391.327323905697	5.216070290344
17	21397	3393.970288675669	15.197243456897
17	21423	3399.062032940988	9.830226600773
17	21446	3401.617796311748	11.652430266445
17	21460	3403.481095474068	11.604076233589
17	21472	3404.843464807151	26.070419588379
17	21486	3407.812209166342	11.156932820144
17	21503	3409.222085651861	19.990279311646
17	21515	3411.820827983461	10.523196047193
17	21531	3414.768601395069	24.803235349766
17	21543	3417.643842907428	25.766823666949
17	21556	3419.33732923774	11.471210873328
17	21571	3421.019443267154	24.364166920956
17	21585	3425.179626037861	16.343887717659
17	21599	3426.75654064381	36.791174598507
17	21617	3428.310147224954	20.444028860542
17	21628	3429.722386257112	20.88664793691
17	21640	3431.858922245654	41.893556200351
17	21653	3433.643460278429	5.901896768358
17	21668	3435.596195742347	7.291417713667
17	21685	3438.850389944981	30.984271580569
17	21699	3441.855667008412	33.01992868821
17	21719	3444.532505551613	12.100290230394
17	21728	3446.21788772328	38.351769358868
17	21747	3447.807720510433	38.971982190231
17	21756	3448.596007908605	4.659168298309
17	21775	3453.068164905923	20.635949584704
17	21792	3456.32696866099	9.883499225306
17	21804	3459.866838013994	52.000719649582
17	21817	3462.588436446655	8.670246263377
17	21840	3464.70248976529	18.259020329606
17	21858	3465.879146029884	58.013027665472
17	21871	3467.329834123961	1.545983217997
17	22011	3497.351647797394	1.894794171439
17	22093	3514.702408716011	1.126650815838
17	22108	3517.259390095694	3.556371429513
17	22121	3524.934247177539	11.358489277366
17	22139	3526.330514355963	12.627495689782
17	22194	3534.714285387547	2.09621745469
17	22211	3538.163621582488	5.545553649631
17	22230	3540.047191516851	2.179863818558
17	22245	3542.199382383494	2.895002447306
17	22258	3543.626015085435	1.228720454088
17	22285	3546.110390024909	3.713095393562
17	22305	3549.772517437349	5.625281929613
17	22319	3551.153983374943	8.756688743596
17	22335	3552.597731799685	8.450496291949
17	22348	3555.080877541428	3.979098008252
17	22369	3557.400636414273	5.8897713931
17	22386	3559.456821620977	7.009751178409
17	22398	3560.908613438309	4.432983575537
17	22409	3563.201563037711	6.628051068503
17	22421	3565.424486651559	13.913621630386
17	22434	3566.478273046849	8.266146876452
17	22442	3567.934083924341	9.216344906167
17	22457	3570.504730169684	13.931218200476
17	22479	3573.130240010874	14.918113840477
17	22491	3575.09024389513	16.372504876956
17	22497	3577.099147529229	5.363089561581
17	22515	3579.215145300145	20.497406281971
17	22526	3582.382433644391	4.572266541883
17	22548	3586.941189439675	8.8276638529
17	22566	3588.68316655595	29.965427537776
17	22586	3594.025066600149	16.214899497641
17	22602	3595.448354731673	8.287949498504
17	22620	3597.768830330167	19.655304743392
17	22639	3599.593013531789	21.782846429281

