version 2
run Net1-0-20200130-22:07:13-21942
attr configname Net1
attr datetime 20200130-22:07:13
attr experiment Net1
attr inifile omnetpp.ini
attr iterationvars ""
attr iterationvarsf ""
attr measurement ""
attr network Net
attr processid 21942
attr repetition 0
attr replication #0
attr resultdir results
attr runnumber 0
attr seedset 0
param **.gen.interArrivalTime1 exponential(0.17s)
param **.gen.interArrivalTime2 exponential(0.20s)
param **.gen.interArrivalTime3 exponential(0.13s)
param **.gen.interArrivalTime4 exponential(0.25s)
param **.gen.interArrivalTime5 exponential(0.15s)
param **.sys.serviceTime1 exponential(0.3s)
param **.sys.serviceTime2 exponential(0.4s)
param **.sys.serviceTime3 exponential(0.5s)
param **.sys.serviceTime4 exponential(0.6s)
param **.sys.serviceTime5 exponential(0.2s)
param **.sys.timeSlot 0.6s
param **.gen.numberofSchedulingClasses 5
param **.sys.numberofSchedulingClasses 5

vector 0 Net.sys busy:vector ETV
attr interpolationmode sample-hold
attr title "server busy state, vector"
vector 1 Net.sys qlen2:vector ETV
attr interpolationmode sample-hold
attr title "queue length, vector"
vector 2 Net.sys qlen0:vector ETV
attr interpolationmode sample-hold
attr title "queue length, vector"
vector 3 Net.sys responseTime2:vector ETV
attr interpolationmode none
attr title "response time at end of service, vector"
attr unit s
vector 4 Net.sys queueingTime2:vector ETV
attr interpolationmode none
attr title "queueing time at dequeue, vector"
attr unit s
vector 5 Net.sink lifetime:vector ETV
attr interpolationmode none
attr title "lifetime of arrived msg, vector"
attr unit s
vector 6 Net.sink arrivedMsg:vector ETV
attr interpolationmode none
attr title "number of arrived msg, vector"
vector 7 Net.sys qlen4:vector ETV
attr interpolationmode sample-hold
attr title "queue length, vector"
vector 8 Net.sys qlen1:vector ETV
attr interpolationmode sample-hold
attr title "queue length, vector"
vector 9 Net.sys responseTime3:vector ETV
attr interpolationmode none
attr title "response time at end of service, vector"
attr unit s
vector 10 Net.sys responseTime1:vector ETV
attr interpolationmode none
attr title "response time at end of service, vector"
attr unit s
vector 11 Net.sys queueingTime1:vector ETV
attr interpolationmode none
attr title "queueing time at dequeue, vector"
attr unit s
vector 12 Net.sys responseTime4:vector ETV
attr interpolationmode none
attr title "response time at end of service, vector"
attr unit s
vector 13 Net.sys queueingTime4:vector ETV
attr interpolationmode none
attr title "queueing time at dequeue, vector"
attr unit s
vector 14 Net.sys qlen3:vector ETV
attr interpolationmode sample-hold
attr title "queue length, vector"
vector 15 Net.sys responseTime0:vector ETV
attr interpolationmode none
attr title "response time at end of service, vector"
attr unit s
vector 16 Net.sys queueingTime0:vector ETV
attr interpolationmode none
attr title "queueing time at dequeue, vector"
attr unit s
vector 17 Net.sys queueingTime3:vector ETV
attr interpolationmode none
attr title "queueing time at dequeue, vector"
attr unit s
0	0	0	0
0	2	0	1
0	11	0.910891759977	0
0	14	1.21952207113	1
0	19	1.595314881971	0
0	22	1.707807568859	1
0	31	2.155420380738	0
0	34	2.406055001487	1
0	35	2.533397457824	0
0	38	3.069037457473	1
0	41	3.198926727123	0
0	44	3.355206310605	1
0	51	3.917828982818	0
0	54	4.007103383817	1
0	77	5.511288015954	0
0	79	5.804041435131	1
0	106	8.145434237489	0
0	109	8.186370966893	1
0	234	15.807290091811	0
0	237	15.864112237827	1
0	361	23.278641278879	0
0	364	23.697942970686	1
0	736	47.336235305968	0
0	739	47.519862325945	1
0	744	47.72300837502	0
0	747	47.752535387576	1
1	4	0.103463685594	1
1	7	0.449280194242	0
1	26	1.915439428992	1
1	40	3.151249815314	2
1	48	3.773259110686	3
1	58	4.357402925406	4
1	64	4.694851448526	5
1	66	4.697506775018	6
1	69	4.911288015954	5
1	74	5.437528000305	6
1	83	6.340561712849	7
1	97	7.615556862223	8
1	124	9.090243107315	8
1	132	9.690243107315	7
1	134	9.722108425213	8
1	137	9.762882120961	7
1	147	10.243572590494	6
1	151	10.487851115148	5
1	154	11.066569907882	6
1	180	12.503278111721	8
1	186	12.679343162774	9
1	202	13.305041050772	10
1	231	15.661609334133	11
1	256	16.727899430355	11
1	258	17.271034120794	10
1	263	17.281769490825	11
1	276	18.813360597708	12
1	277	18.918959867096	11
1	282	19.235128165294	10
1	284	19.263791628506	9
1	286	19.728030876957	8
1	290	20.028004320278	7
1	292	20.038099384351	6
1	294	20.05808753388	5
1	298	20.349526728313	4
1	309	20.743741368153	5
1	314	20.993546596198	7
1	320	21.269697431808	8
1	322	21.278316094001	9
1	324	21.310087502252	10
1	326	21.46338214077	11
1	366	23.906299101522	12
1	368	24.145665822815	13
1	382	24.55930189858	14
1	384	24.582734691338	15
1	390	24.81322233885	16
1	418	26.520206139875	17
1	445	28.835306379695	17
1	462	30.035306379695	16
1	511	32.947856365179	18
1	525	33.531438658472	19
1	535	34.019163249951	20
1	545	34.851341565907	21
1	559	35.412635326869	22
1	574	36.364962160213	23
1	607	39.239952036714	22
1	654	41.896601438004	24
1	656	42.066810225327	25
1	675	42.647461119367	26
1	712	45.086859749185	27
1	714	45.12217659833	28
1	720	45.834205825011	29
1	722	45.957943686991	30
1	741	47.681458336625	31
1	759	48.405125681914	32
1	760	48.434948206969	31
1	792	50.044650814923	33
1	804	50.8536170274	34
1	812	51.296478035121	35
1	816	51.591557237173	36
1	840	53.36586249424	37
1	878	56.104287959391	37
1	886	56.685844601104	36
1	941	60.073868767518	35
1	943	60.1334403703	36
1	947	60.203914662012	37
1	950	60.438130688885	36
1	959	60.942401335023	37
1	968	61.180985577405	39
1	978	61.485697994393	40
1	994	62.266509624351	41
1	996	62.446340764951	42
1	1014	63.378888882626	43
1	1048	65.637951537095	44
1	1057	66.493682619321	45
1	1070	67.597087057586	44
1	1073	67.935988058614	43
1	1079	68.806266486677	45
1	1110	70.731307141399	46
1	1113	71.252340596533	47
1	1115	71.33694425104	48
1	1126	71.947078813579	49
1	1134	72.192337730084	50
1	1147	72.695115802491	49
1	1148	72.746599984351	48
1	1150	73.007139394893	47
1	1166	75.144342351133	49
1	1197	76.777494878998	50
1	1213	77.411189814239	51
1	1236	79.198282964715	50
1	1239	79.249050006686	49
1	1242	79.29028847793	50
1	1244	79.308614302904	51
1	1245	79.39700094331	50
1	1249	79.425484209543	49
1	1253	79.604964868731	48
1	1257	79.756950648345	47
1	1260	79.844585576281	48
1	1263	80.061482876007	47
1	1269	80.353194761525	46
1	1271	80.519896430713	45
1	1273	80.803981672584	44
1	1276	80.817632354267	45
1	1277	81.04294066634	44
1	1281	81.1428684353	43
1	1317	82.565456508169	45
1	1337	83.60529204727	46
1	1365	85.055430939491	47
1	1369	85.266790937129	48
1	1376	85.586433261435	49
1	1386	86.017323479122	50
1	1420	88.079098674838	51
1	1432	88.807676766339	52
1	1435	89.028663121985	51
1	1437	89.19168177318	52
1	1440	89.462648112994	51
1	1447	89.815570037187	52
1	1472	91.012528674904	54
1	1490	92.506143694058	55
1	1496	93.240075805369	56
1	1512	94.336251259489	55
1	1517	94.612103065784	54
1	1529	95.298813889853	56
1	1541	95.741567502708	57
1	1545	95.875057808775	58
1	1567	97.567723454947	59
1	1583	97.97209634051	60
1	1587	98.071301767857	61
1	1591	98.30485769789	62
1	1615	98.919707888039	63
1	1617	99.007504151161	64
1	1624	99.48898995704	64
1	1634	100.280932982397	65
1	1641	100.68898995704	64
1	1645	101.045536870516	65
1	1680	102.905791186941	67
1	1700	103.931727111961	68
1	1719	105.14916294557	69
1	1721	105.226665291452	70
1	1723	105.282371279995	71
1	1739	107.348422409447	72
1	1743	107.426411795349	73
1	1744	107.790158158447	72
1	1745	107.928394516719	71
1	1749	108.071849064411	70
1	1753	108.127821334983	69
1	1785	110.315075463624	71
1	1807	111.348097287952	72
1	1818	112.120182546358	73
1	1834	113.444799118251	74
1	1852	114.76899230678	75
1	1864	115.194125938076	76
1	1868	115.363127370542	77
1	1883	116.361411195754	76
1	1884	116.399007100336	75
1	1908	117.618454998959	77
1	1929	118.806091323766	78
1	1938	119.220017914708	79
1	1944	119.559582380125	80
1	1948	119.768456333452	81
1	1951	119.820429718874	82
1	1954	120.377694431806	81
1	1955	120.470002368259	80
1	1957	120.494960169472	79
1	1960	120.760073101258	80
1	1964	120.878180985705	81
1	1979	121.602893576593	83
1	1991	122.51905568789	84
1	2013	123.42329180951	85
1	2047	124.982657742969	86
1	2097	127.872056635867	87
1	2101	128.337261860226	88
1	2110	129.393231572611	89
1	2125	130.31700431911	90
1	2131	130.545985115953	91
1	2146	131.994150829822	92
1	2153	132.51965899933	91
1	2158	132.906965867508	90
1	2246	138.798463214797	92
1	2248	138.851622493599	93
1	2252	138.927060140037	94
1	2254	138.937404260199	95
1	2284	140.652696556965	94
1	2285	140.756548200071	93
1	2289	141.31480748685	92
1	2292	141.343447574464	93
1	2294	141.439680359348	94
1	2299	141.691192312869	93
1	2301	141.692744491273	92
1	2303	141.917601175246	91
1	2305	142.372386527682	90
1	2309	142.690438254865	89
1	2314	142.899903602188	90
1	2315	142.928042974258	89
1	2320	143.453416891636	90
1	2329	143.720434359091	92
1	2379	146.623496204117	93
1	2419	150.296964642536	92
1	2420	150.357193776421	91
1	2432	150.956269470343	90
1	2438	150.988611272916	89
1	2442	151.062427214532	88
1	2446	151.213404716277	87
1	2470	152.858509801501	89
1	2482	153.703608126896	90
1	2509	155.553675759424	91
1	2511	155.565969435169	92
1	2532	157.034219044436	93
1	2534	157.075329868195	94
1	2547	157.591645787717	95
1	2550	158.109547437384	94
1	2553	158.162204646985	93
1	2555	158.182433624815	92
1	2557	158.244827385994	91
1	2559	158.575367286409	90
1	2564	158.720477565937	91
1	2565	158.733580982003	90
1	2569	158.867692528639	89
1	2571	158.898029678726	88
1	2579	159.454461584532	87
1	2584	159.63361556289	88
1	2586	159.766136937339	89
1	2590	159.955932000689	90
1	2595	160.100123334163	92
1	2633	161.826995549094	93
1	2639	161.989691713498	94
1	2655	162.720946770507	95
1	2657	162.851892219998	96
1	2668	163.911691245687	97
1	2672	164.207605851592	98
1	2687	165.81469868213	97
1	2688	165.920409269619	96
1	2690	166.13983635814	95
1	2692	166.149490410736	94
1	2702	166.992539567036	96
1	2712	167.195532002066	97
1	2758	168.6484215752	98
1	2817	172.618366051877	99
1	2819	172.697486567904	100
1	2825	172.962667323541	101
1	2831	173.091563867603	102
1	2833	173.130866525549	103
1	2857	173.976783329594	104
1	2864	174.382286019813	103
1	2881	175.302357551536	105
1	2887	175.834384762421	106
1	2905	177.462692128772	107
1	2907	177.532526014593	108
1	2914	178.179860657319	109
1	2916	178.452707053034	110
1	2938	179.710697389142	111
1	2941	179.848888389475	110
1	2944	180.142910295314	109
1	2948	180.347723875355	108
1	2951	180.355007279565	109
1	2953	180.548739660833	110
1	2962	181.539275202816	112
1	2967	181.849520773029	113
1	2969	182.053573759128	114
1	2972	182.203944666789	115
1	2984	182.535958358007	116
1	3024	185.248926185154	117
1	3051	186.422674191832	118
1	3057	186.553018392108	119
1	3066	187.207179164121	118
1	3067	187.679249790154	117
1	3087	188.798381809028	119
1	3093	188.978503583869	120
1	3103	189.705347414371	121
1	3107	189.920808702058	122
1	3109	190.08130070513	123
1	3160	192.583861814645	124
1	3170	193.20513805237	125
1	3174	193.242003836691	126
1	3176	193.314034775521	127
1	3180	193.339109239656	128
1	3188	193.464667905148	129
1	3190	193.476678282586	130
1	3239	196.238876840345	131
1	3245	196.429979199912	132
1	3254	196.742102060362	132
1	3258	197.294325462855	131
1	3261	197.560845748955	132
1	3264	197.689063760274	131
1	3267	197.795232822944	132
1	3269	198.090071573753	133
1	3271	198.261878287556	134
1	3289	199.585475501378	133
1	3295	199.714832115934	134
1	3306	200.660862102154	136
1	3308	200.686186894702	137
1	3324	201.26544289396	138
1	3332	201.942987005993	139
1	3340	202.09682114403	140
1	3356	203.006616278902	141
1	3383	204.398122516642	142
1	3385	204.605028191342	143
1	3387	204.67880742724	144
1	3403	205.542407653611	145
1	3415	206.113209623228	146
1	3418	206.555640610475	145
1	3421	206.766842335176	144
1	3429	207.658579828874	146
1	3455	209.140585488171	147
1	3467	209.895671349662	148
1	3479	210.633970817291	149
1	3500	211.829344639931	150
1	3531	214.070287185047	149
1	3561	216.370025654622	151
1	3607	219.363378273243	152
1	3657	222.542408544688	153
1	3668	223.488307829527	152
1	3669	223.611042570597	151
1	3673	223.803078356446	150
1	3697	225.450240701336	152
1	3743	228.59749184994	151
1	3760	229.888847195225	153
1	3762	230.091588861849	154
1	3764	230.120152948764	155
1	3768	230.393362594398	156
1	3775	230.534390999906	157
1	3779	230.961111699533	158
1	3788	231.408976048246	159
1	3790	231.576304522001	160
1	3793	231.738123592244	161
1	3799	232.288633272427	162
1	3801	232.37677139025	163
1	3811	233.04952011937	164
1	3818	233.455185914461	163
1	3819	233.461308833883	162
1	3821	233.477599160675	161
1	3829	233.672515283934	160
1	3831	234.025999365961	159
1	3843	234.620583403214	158
1	3845	234.641364462613	157
1	3859	235.554586887268	159
1	3885	236.808565264063	160
1	3922	238.379549727075	161
1	3971	242.205172197136	162
1	3991	243.577186346832	161
1	4000	243.876308954509	160
1	4002	244.030457730141	159
1	4004	244.329566417525	158
1	4006	244.397644704211	157
1	4009	244.451106771192	158
1	4026	245.093270511019	160
1	4050	245.974208574364	161
1	4077	247.325335352873	162
1	4080	247.670068134176	163
1	4082	247.687080315827	164
1	4096	248.283454879057	165
1	4122	249.426193474422	166
1	4134	250.496308995848	165
1	4135	250.510499470237	164
1	4139	250.673589868999	163
1	4143	250.77642442898	162
1	4155	251.364454292588	161
1	4158	251.706469906902	162
1	4167	252.224904145208	164
1	4171	252.290861290498	165
1	4177	252.484488408612	166
1	4181	252.520786493589	167
1	4198	254.796894005997	168
1	4201	254.901271975224	167
1	4202	254.987190652618	166
1	4206	255.205842580634	165
1	4208	255.269916873583	164
1	4213	255.56446833338	165
1	4224	256.00539663054	167
1	4243	257.328834968994	168
1	4252	258.076035030073	169
1	4256	258.304979790744	170
1	4276	260.175296986512	169
1	4281	260.507120824128	168
1	4286	260.736927987443	169
1	4287	260.782586811407	168
1	4290	260.794490677309	169
1	4292	260.817728054256	170
1	4295	261.017869049511	169
1	4322	263.314099130663	171
1	4339	264.128201788668	172
1	4342	264.701976952213	173
1	4346	264.886613305147	174
1	4351	265.170956878512	173
1	4370	266.410902516363	175
1	4406	268.083525959262	176
1	4426	268.453143806621	177
1	4440	268.950958251836	178
1	4452	269.465831885955	179
1	4495	272.246821367072	180
1	4501	272.578512466378	181
1	4506	273.076500377025	180
1	4507	273.218194302112	179
1	4511	273.395927602169	178
1	4516	273.511902326615	179
1	4519	273.641769374756	178
1	4525	274.085319179299	177
1	4529	274.732085092751	179
1	4560	276.964840708247	180
1	4579	278.309652848414	181
1	4584	278.978756411439	182
1	4610	280.613896165696	183
1	4633	281.975808281845	182
1	4635	282.243062460548	183
1	4636	282.438536359975	182
1	4643	282.823851782204	183
1	4646	282.92416409196	182
1	4652	283.322140976457	181
1	4655	283.743974754389	182
1	4657	283.757471051451	183
1	4694	285.661963192084	185
1	4703	286.457883263854	186
1	4718	288.268661975748	185
1	4719	288.408895794479	184
1	4721	288.559845968382	183
1	4725	288.866286456169	182
1	4732	288.952765643609	183
1	4789	291.100160649814	185
1	4800	291.659108550382	186
1	4802	291.768609255719	187
1	4832	294.350539717999	188
1	4845	295.429652061867	187
1	4851	295.931037799118	188
1	4854	296.021323964422	187
1	4858	296.129195768628	186
1	4888	299.390207265402	188
1	4909	300.488964902459	189
1	4914	300.994224471057	188
1	4915	301.078072745364	187
1	4919	301.256875549632	186
1	4922	301.275260131399	187
1	4930	301.687281411923	188
1	4935	301.911913650343	190
1	4937	301.91472036084	191
1	4956	303.0519702111	192
1	4960	303.125777903529	193
1	4970	303.425767640355	194
1	4976	303.80716576107	195
1	4991	304.807475947148	196
1	5019	307.320119706283	195
1	5024	307.885958740159	194
1	5026	308.24265429931	193
1	5031	308.338630854086	194
1	5036	308.727948999218	193
1	5044	309.30966729538	192
1	5050	309.708074378369	191
1	5053	309.794460166919	192
1	5057	309.950115589687	193
1	5058	309.960349342393	192
1	5125	315.00423270499	194
1	5128	315.246551566337	193
1	5129	315.289102406373	192
1	5131	315.544889134959	191
1	5135	315.904824397847	190
1	5137	316.029908212517	189
1	5142	316.17591219824	190
1	5143	316.286054536054	189
1	5149	316.659240592095	188
1	5153	316.794832146866	187
1	5155	316.953082909619	186
1	5157	317.303117732482	185
1	5163	317.452360655237	184
1	5165	317.466086454073	183
1	5173	318.144253983688	185
1	5191	318.817505884037	186
1	5210	319.651144464955	187
1	5216	320.114967509412	188
1	5267	323.827903835534	189
1	5277	324.384875847092	190
1	5279	324.553581779696	191
1	5291	325.468173327726	192
1	5323	327.224597540762	193
1	5342	328.31761571216	194
1	5344	328.372592857217	195
1	5352	328.550861002882	196
1	5369	329.801872216921	195
1	5386	331.042693550321	197
1	5388	331.179716480149	198
1	5411	332.816479715229	199
1	5415	332.939714018375	200
1	5422	333.309029557665	199
1	5423	333.389686366248	198
1	5431	333.774884238479	197
1	5433	334.334781675594	196
1	5437	334.515568900429	195
1	5441	334.670655579478	194
1	5448	334.909635175651	195
1	5505	338.58341303905	197
1	5528	339.952901349837	198
1	5530	340.033258623269	199
1	5537	340.755101723358	198
1	5538	340.907920560721	197
1	5546	341.587503888876	199
1	5550	341.605860324557	200
1	5605	344.294733472873	201
1	5607	344.391944982737	202
1	5612	344.856719100716	203
1	5634	346.768329392341	202
1	5638	347.022496635948	203
1	5640	347.169770723076	204
1	5652	347.99544913014	206
1	5654	348.236123254174	207
1	5664	348.734691936124	208
1	5700	350.141717317494	209
1	5707	350.339186016069	210
1	5708	350.668321054074	210
1	5712	350.97924624907	209
1	5715	351.021897120266	210
1	5716	351.162830124517	209
1	5722	351.66794925422	208
1	5734	352.595339378433	209
1	5742	353.750050397989	210
1	5747	354.048119545506	209
1	5766	355.283043382648	211
1	5791	356.757877519822	212
1	5798	357.17124664826	213
1	5800	357.275340111673	214
1	5823	358.860777203404	215
1	5846	360.314478538147	214
1	5857	361.237370208521	216
1	5871	362.072248635295	217
1	5898	364.113277438651	218
1	5905	364.49978942657	219
1	5915	365.217984932455	220
1	5932	366.533080437277	221
1	5952	367.481475836523	222
1	5969	368.720280417266	221
1	5970	368.929542823216	220
1	6007	372.076184835435	222
1	6009	372.165407239852	223
1	6011	372.171046904002	224
1	6015	372.354325868424	225
1	6031	372.916429856012	226
1	6059	374.409896936829	227
1	6084	376.046092141397	228
1	6103	377.292701510048	229
1	6159	380.553818346012	230
1	6164	381.034798088495	229
1	6166	381.098721381736	230
1	6167	381.133966469583	229
1	6171	381.482310842782	228
1	6195	383.148806677743	230
1	6197	383.343545466636	231
1	6201	383.493512423194	232
1	6209	383.687307375769	233
1	6211	383.752233039086	234
1	6217	383.93986866774	235
1	6259	385.691208416638	236
1	6271	387.001629777775	237
1	6285	387.854516673484	238
1	6323	390.067563310439	239
1	6337	391.340607568193	238
1	6339	391.548284911655	239
1	6360	392.55024217548	241
1	6362	392.578848315136	242
1	6369	392.950871690889	243
1	6393	395.252062627099	244
1	6407	396.176146107602	245
1	6409	396.262397960918	246
1	6415	396.460429281574	247
1	6419	396.893494084743	248
1	6421	396.911078014216	249
1	6422	396.914318746272	248
1	6445	399.069143338509	250
1	6463	399.871457340912	251
1	6469	400.124547716271	252
1	6475	400.353745293872	253
1	6481	400.365846199395	254
1	6483	400.40223601248	255
1	6499	401.531552507219	256
1	6501	401.536730413367	257
1	6513	402.056920102623	258
1	6538	403.207020642246	259
1	6540	403.295775678329	260
1	6571	405.282949111728	259
1	6574	405.414447062652	258
1	6578	405.598440761241	257
1	6581	406.193205493938	258
1	6596	406.649078577566	260
1	6614	407.500816366784	261
1	6641	408.924465090849	262
1	6662	409.796738846081	263
1	6668	410.091022485042	264
1	6684	410.425236504463	265
1	6700	411.161325978327	266
1	6702	411.280843407842	267
1	6721	412.670882405469	268
1	6731	412.977395063256	269
1	6733	413.005065801276	270
1	6743	413.199831548928	271
1	6759	413.888702430831	272
1	6773	414.733966811194	273
1	6776	415.132188753913	272
1	6778	415.277788492986	273
1	6783	415.485046884049	272
1	6785	415.594433968967	271
1	6787	415.684922570983	270
1	6789	415.70009090935	269
1	6799	416.248338054263	268
1	6801	416.397635893067	267
1	6827	418.248526664109	269
1	6865	419.733016728135	270
1	6873	420.237261745902	271
1	6877	420.737050538492	272
1	6884	421.025869550122	273
1	6886	421.058049479068	274
1	6917	423.858100750492	273
1	6919	424.241966172391	274
1	6924	424.50952556512	276
1	6990	430.230502496858	275
1	7050	434.219065619463	277
1	7081	436.257385908011	278
1	7085	436.460395161825	279
1	7090	436.993560887595	280
1	7094	437.257336070425	281
1	7097	437.265382795147	280
1	7100	437.349811804576	279
1	7102	437.586545394234	278
1	7109	437.958805499284	279
1	7118	438.315416087817	281
1	7120	438.399582828385	282
1	7130	438.831827419837	283
1	7142	440.037522862128	284
1	7146	440.315865584897	285
1	7176	441.810530182526	286
1	7186	441.947829312486	287
1	7204	443.495036306293	288
1	7221	444.585794514641	289
1	7229	444.81512658515	290
1	7233	445.164707263912	291
1	7242	445.901174791943	290
1	7244	445.93025962561	291
1	7245	446.099136862264	290
1	7247	446.154510030764	289
1	7249	446.215149108342	288
1	7251	446.258762402673	287
1	7327	451.209308384262	289
1	7348	452.466852926071	290
1	7352	452.841930890466	291
1	7355	453.057039482457	290
1	7360	453.249571248599	289
1	7362	453.418348102243	288
1	7422	456.83621130506	290
1	7441	457.779222536901	291
1	7466	459.123758271296	292
1	7506	461.47381912711	291
1	7507	461.694224009651	290
1	7511	462.211055873511	289
1	7529	463.380863527223	291
1	7568	466.503933268475	292
1	7601	468.97701424806	293
1	7620	470.409648757033	294
1	7627	471.112139855892	293
1	7658	472.823284707723	295
1	7722	476.748583865636	296
1	7742	477.547823533602	295
1	7743	477.703885555144	294
1	7748	477.782579809465	295
1	7753	477.952931667837	294
1	7757	477.965709470916	293
1	7761	478.124127814308	292
1	7763	478.433939981851	291
1	7767	478.997375830128	290
1	7769	479.104079660448	289
1	7773	479.426135994581	288
1	7793	480.552545546382	290
1	7797	480.801564376115	291
1	7807	481.037410652219	292
1	7817	481.670370796432	293
1	7821	481.780556416599	294
1	7831	482.572920327768	295
1	7844	483.682970458221	296
1	7874	485.460096230575	297
1	7888	486.494337867509	298
1	7920	489.278789522937	299
1	7930	489.662084295984	300
1	7943	490.241295511695	299
1	7949	490.523398325432	300
1	7950	490.639825795357	299
1	7953	490.762310243436	300
1	7955	490.851701525043	301
1	7957	490.916508700612	302
1	7972	491.579604284219	304
1	7978	491.898729455178	305
1	8022	493.799528857202	306
1	8084	497.343373525789	307
1	8092	497.942915508272	308
1	8123	500.581737034361	309
1	8125	500.601795072802	310
1	8132	500.902765078994	309
1	8133	501.00456074574	308
1	8143	501.359984773037	307
1	8190	503.76701898007	309
1	8203	505.27443659185	310
1	8210	505.692874894385	311
1	8217	506.418918655658	310
1	8225	506.935040285751	311
1	8234	507.277659357792	313
1	8282	509.499163495062	314
1	8284	509.661550476812	315
1	8286	509.722729594818	316
1	8318	512.078259266477	315
1	8323	512.269917571959	314
1	8326	512.568861193979	315
1	8331	512.737150772127	314
1	8335	513.133285579392	313
1	8338	513.293782609518	314
1	8340	513.534424914821	315
1	8349	513.927125243611	317
1	8393	517.354999429054	318
1	8395	517.385913075355	319
1	8416	518.497622142744	320
1	8423	518.760357597834	319
1	8458	521.772343684158	321
1	8478	522.761715375879	322
1	8484	523.147067949958	323
1	8523	525.457016883658	324
1	8526	525.710868731033	323
1	8528	525.968250700471	324
1	8534	526.178289651708	325
1	8536	526.193556535109	326
1	8538	526.232169941937	327
1	8597	531.108668224525	327
1	8599	531.291629148325	328
1	8610	532.043287799704	330
1	8621	532.612432126897	331
1	8628	533.226962004793	332
1	8670	536.701250446356	333
1	8687	537.735428569452	334
1	8701	538.830295642286	335
1	8730	541.455961859368	334
1	8731	541.622659990684	333
1	8757	542.887934186881	335
1	8764	543.883792623888	336
1	8766	543.960880196768	337
1	8768	544.083243853428	338
1	8796	546.28606139441	338
1	8815	547.867428941435	337
1	8823	548.20706671849	338
1	8826	548.314188172561	337
1	8828	548.463046504165	336
1	8831	548.467188611047	337
1	8834	548.798184948468	336
1	8836	548.842052738463	335
1	8838	549.116671468047	334
1	8860	550.14645876039	336
1	8872	550.645435836971	337
1	8925	554.389284943787	338
1	8929	554.538406884535	339
1	8944	556.161502329281	338
1	8948	556.364424397212	339
1	8952	556.469542525702	340
1	8957	556.543833521903	339
1	8960	556.653745420145	340
1	8963	557.019595416294	339
1	8965	557.180391645191	338
1	8969	557.349881693914	337
1	8975	557.695906091163	336
1	8977	557.901508704927	335
1	8979	557.918454415937	334
1	8981	558.023975765646	333
1	8983	558.158447414345	332
1	8988	558.235800761975	333
1	8990	558.345970376022	334
1	8992	558.570341170788	335
1	9021	560.464763536381	337
1	9053	561.896278384114	338
1	9055	562.069936426992	339
1	9104	565.742875578155	340
1	9109	565.987945684806	339
1	9136	567.504142291601	341
1	9150	568.639833585007	342
1	9176	569.541249749528	343
1	9184	569.751902328616	344
1	9213	571.401263807183	345
1	9221	571.831636039701	346
1	9225	571.911533657003	347
1	9238	572.817916249416	348
1	9244	573.421740629933	349
1	9255	573.98696175837	350
1	9261	574.663130224084	351
1	9262	574.683286766669	350
1	9265	574.695042192501	349
1	9272	574.908717463119	350
1	9279	575.073729092003	349
1	9281	575.081572145059	348
1	9309	576.02412964259	350
1	9331	577.782198401841	351
1	9333	577.808162271519	352
1	9343	578.220661915706	353
1	9376	580.848599892217	354
1	9385	581.625728099475	353
1	9386	581.676584607457	352
1	9389	581.791978578463	353
1	9400	582.690482771243	355
1	9412	584.041468661959	356
1	9415	584.183481159383	357
1	9419	584.446207258909	358
1	9439	585.655614576457	359
1	9442	585.908899963723	358
1	9449	586.30366876812	357
1	9453	586.355058583884	356
1	9455	586.686690969596	355
1	9457	586.833149962527	354
1	9463	586.911255607729	353
1	9473	587.886887104368	355
1	9475	587.9390382614	356
1	9477	587.942514952909	357
1	9481	587.963032744983	358
1	9483	587.964065559599	359
1	9506	589.899961276941	360
1	9508	589.922780190089	361
1	9520	590.894609647371	362
1	9541	591.376261134839	363
1	9551	591.639458762879	364
1	9566	592.415188991993	365
1	9575	593.31328609543	364
1	9578	593.552331882941	363
1	9584	594.012523291753	362
1	9586	594.191271080045	361
1	9588	594.213388461456	360
1	9591	594.25475969299	361
1	9595	594.496762527371	362
1	9597	594.55836946181	363
1	9600	594.92033197249	365
1	9634	596.871015536196	366
1	9648	597.515776666233	367
1	9679	599.456216758909	368
1	9681	599.751471062655	369
1	9692	600.311529314916	370
1	9700	600.54365294945	371
1	9702	600.592537276505	372
1	9710	601.472683211951	371
1	9727	602.310883241928	373
1	9761	604.230205705824	374
1	9771	605.030445151151	375
1	9773	605.047120730463	376
1	9781	605.431270547285	377
1	9785	605.494484992983	378
1	9795	606.109898975905	379
1	9804	606.761282809884	380
1	9815	607.444209828656	379
1	9818	607.631886446554	378
1	9820	608.108800318747	377
1	9823	608.520204987301	378
1	9825	608.580346848781	379
1	9834	608.904873235624	381
1	9836	609.017239644208	382
1	9846	609.870233386458	383
1	9850	609.926891558578	384
1	9854	610.155925040272	385
1	9864	611.042577571791	386
1	9880	611.45747017923	387
1	9886	611.625509397681	388
1	9900	612.821376444932	387
1	9901	612.896631024398	386
1	9904	612.942581286106	387
1	9905	613.216683684322	386
1	9911	613.303271327353	385
1	9913	613.657539289412	384
1	9915	613.911063811387	383
1	9917	614.000573259263	382
1	9919	614.247262343831	381
1	9922	614.356273463794	382
1	9925	614.475030453154	381
1	9927	614.597706564506	380
1	9931	614.873969350293	379
1	9981	617.646345721239	381
1	10022	620.250700740275	382
1	10042	621.89365496849	383
1	10044	621.909558495032	384
1	10054	622.635744436776	385
1	10061	622.841569312984	384
1	10062	623.134042532586	383
1	10065	623.142574169275	384
1	10070	623.437927795169	383
1	10074	623.741324719254	382
1	10077	624.212102742964	383
1	10079	624.214606660531	384
1	10099	625.514718221705	386
1	10103	625.745434898264	387
1	10114	626.475381597059	388
1	10126	627.154725382252	389
1	10128	627.2585938022	390
1	10138	627.73705542075	391
1	10140	627.809981304221	392
1	10142	627.998040518268	393
1	10168	629.923816231487	392
1	10175	630.437903870553	391
1	10179	630.481543325529	390
1	10182	630.571776586504	391
1	10186	630.704033915512	392
1	10190	630.761494522714	393
1	10191	630.901475909925	392
1	10197	631.143455784739	391
1	10205	632.046339639561	393
1	10211	632.178920666174	394
1	10219	632.575788904804	395
1	10234	633.670382289536	396
1	10273	635.51548758069	397
1	10283	636.016611109204	398
1	10305	637.979887007022	397
1	10307	638.317085142642	398
1	10310	638.413732853514	397
1	10315	638.724484983512	398
1	10318	638.883449612217	397
1	10320	639.223646845024	396
1	10322	639.393730415873	395
1	10328	639.75148192614	394
1	10337	640.16073665602	395
1	10364	641.449261411756	397
1	10380	641.942475383639	398
1	10384	642.1052627425	399
1	10439	646.027288500015	400
1	10447	646.087856349204	401
1	10457	646.254597793939	402
1	10463	646.639180272346	403
1	10502	649.10626590975	404
1	10506	649.163991550519	405
1	10518	649.623602495658	406
1	10526	650.463561033577	405
1	10528	650.609392688906	406
1	10529	650.678612436952	405
1	10535	650.762658071887	404
1	10537	650.824763842434	403
1	10539	650.886327735224	402
1	10541	651.169670153655	401
1	10543	651.595150814884	400
1	10546	651.743197267501	401
1	10548	651.923454340887	402
1	10551	652.134267538915	401
1	10553	652.317103112959	400
1	10555	652.375387436657	399
1	10558	652.606196041247	400
1	10565	652.991917742769	402
1	10607	657.242217737865	403
1	10609	657.261316135137	404
1	10620	657.958070319483	405
1	10651	659.539712932351	404
1	10654	659.896796833764	403
1	10659	660.021699117742	404
1	10662	660.069204789903	403
1	10667	660.623279718698	404
1	10672	660.681579782343	406
1	10682	660.84110353906	407
1	10684	660.871864435548	408
1	10708	661.721876695739	409
1	10721	662.721658450156	410
1	10741	663.841495936039	411
1	10768	665.471405159472	410
1	10773	665.989289249654	409
1	10778	666.041938895354	410
1	10781	666.291220499004	409
1	10783	666.45441043844	408
1	10786	666.5747527829	409
1	10788	666.575411190729	410
1	10793	666.716086049314	409
1	10821	669.27005500131	411
1	10823	669.314463944622	412
1	10830	670.198636748136	413
1	10838	670.45875444119	414
1	10842	670.641813706151	415
1	10849	671.037368040755	414
1	10850	671.103001735994	413
1	10862	672.081992483821	415
1	10866	672.141459169529	416
1	10870	672.419577720026	417
1	10888	673.292947425109	418
1	10895	673.955410852252	419
1	10911	674.615951118815	420
1	10926	675.521820393273	421
1	10938	676.073888358441	422
1	10940	676.231059047575	423
1	10950	677.040713286299	422
1	11009	681.825277938707	422
1	11011	682.122132151613	423
1	11014	682.173304810905	422
1	11018	682.209368221253	421
1	11022	682.436806357758	420
1	11025	682.475059415318	421
1	11029	682.582488585821	422
1	11032	683.035330157402	421
1	11036	683.14615876995	420
1	11038	683.31655249603	419
1	11040	683.424414662294	418
1	11044	683.469861755672	417
1	11048	683.928496994571	416
1	11054	684.065644388895	415
1	11056	684.267080233899	414
1	11064	684.714549548338	413
1	11066	684.71820649022	412
1	11068	684.73707313965	411
1	11070	684.799142052474	410
1	11072	684.837467567155	409
1	11074	684.968494599111	408
1	11079	685.247180341406	409
1	11081	685.312963438379	410
1	11084	685.400404873089	409
1	11089	685.593942298666	410
1	11092	685.974363442104	409
1	11095	686.014592438251	410
1	11098	686.229552852376	409
1	11100	686.264627952825	408
1	11114	687.547586187714	410
1	11163	691.373715013121	411
1	11168	691.782588911115	410
1	11169	692.105338885848	409
1	11174	692.434007513052	410
1	11175	692.628066656119	409
1	11181	692.911445931378	408
1	11195	693.651018375314	410
1	11211	694.12185178653	411
1	11289	699.199689647457	412
1	11303	700.585917691971	411
1	11305	700.816055966879	412
1	11334	702.318346369311	414
1	11355	704.161955294916	415
1	11357	704.180957921183	416
1	11363	704.56505670153	417
1	11371	705.16600486427	418
1	11392	706.163913151087	419
1	11418	707.427828126381	418
1	11419	707.511660935474	417
1	11421	707.584055317618	416
1	11431	708.274314074849	418
1	11449	708.912104029606	419
1	11469	710.057627757737	420
1	11531	713.644232927742	421
1	11543	714.726683374958	422
1	11560	715.828734748755	423
1	11564	716.049093207326	424
1	11572	716.632488760048	425
1	11592	717.028215963381	426
1	11602	717.336917800999	427
1	11610	717.700649036498	428
1	11612	717.71338156085	429
1	11613	718.044501386291	428
1	11614	718.113411178318	427
1	11619	718.147784723914	428
1	11623	718.223403742487	429
1	11624	718.586507037024	428
1	11627	718.629910728626	429
1	11630	718.812551745551	428
1	11638	719.410418060367	427
1	11648	720.311661415629	429
1	11666	721.02104477929	430
1	11680	721.490207596809	431
1	11712	722.831480412816	432
1	11746	724.774202820981	433
1	11769	727.456312695645	434
1	11792	729.631065039049	435
1	11803	730.008036517345	436
1	11807	730.21630810548	437
1	11825	730.743832145372	438
1	11831	730.949185341633	439
1	11837	731.609590012468	440
1	11838	731.767554718015	439
1	11841	732.008878980514	438
1	11843	732.028835035239	437
1	11895	735.04428553851	439
1	11897	735.049796840629	440
1	11911	735.545467005343	441
1	11915	735.93957158313	442
1	11930	736.616049535748	443
1	11949	738.119737007571	444
1	11960	738.53619294752	445
1	11962	738.633817198837	446
1	11984	739.849254540175	447
1	11998	740.725566550712	448
1	12010	741.211617971507	449
1	12014	741.318880830139	450
1	12022	741.687763376517	451
1	12026	741.776033826184	452
1	12032	742.278522239848	453
1	12045	743.039545308286	452
1	12046	743.064181301386	451
1	12074	744.47343841988	453
1	12095	745.715108058866	454
1	12110	746.623898535988	455
1	12121	747.35482647608	456
1	12126	747.746417792437	455
1	12159	749.772970620575	457
1	12161	749.899245882924	458
1	12163	749.947976431195	459
1	12169	750.383352122156	460
1	12171	750.52973398019	461
1	12199	751.756604337302	462
1	12204	752.034687084347	463
1	12229	753.682392742949	464
1	12261	754.62774689756	465
1	12263	754.791835538936	466
1	12269	755.19300463214	467
1	12286	755.938103538392	468
1	12288	756.021969674228	469
1	12292	756.057739707337	470
1	12299	756.917455696027	469
1	12333	759.143367688414	471
1	12338	759.648185761235	472
1	12344	759.754733650044	473
1	12364	760.573498018001	474
1	12366	760.714183253458	475
1	12370	760.764097330745	476
1	12376	760.949005784776	477
1	12385	761.368809682171	478
1	12387	761.429090097006	479
1	12397	761.745074920161	480
1	12399	761.745497047429	481
1	12410	762.661662826171	480
1	12411	762.824229749824	479
1	12419	763.270672882831	478
1	12428	763.730512365638	479
1	12430	763.759519402904	480
1	12435	763.989730488839	482
1	12482	766.66221368254	483
1	12511	769.1829363282	484
1	12523	770.227467088907	483
1	12524	770.631652785244	482
1	12530	770.901408700692	481
1	12546	771.937841174085	483
1	12590	774.708913515713	484
1	12597	774.89631742885	485
1	12611	775.977650538161	486
1	12615	776.22382282027	487
1	12619	776.302432232496	488
1	12627	776.961501458588	489
1	12635	777.090299920059	490
1	12660	778.415382531975	489
1	12662	778.96088689539	490
1	12679	779.747985128448	492
1	12681	779.966757213956	493
1	12738	783.53978072847	494
1	12758	784.953658534723	495
1	12761	785.189059328749	494
1	12762	785.777344510781	493
1	12764	785.882442047825	492
1	12769	786.042714036286	493
1	12774	786.295010439475	492
1	12776	786.300126939805	491
1	12787	786.612302543732	492
1	12794	787.074047010049	494
1	12802	787.347795433282	495
1	12808	787.922740810477	496
1	12820	788.332247126404	497
1	12822	788.396994302961	498
1	12859	790.523918280528	499
1	12878	792.069328478967	500
1	12880	792.092673584744	501
1	12917	793.697762675486	502
1	12919	793.94095341193	503
1	12920	793.989648964469	502
1	12924	794.274856864896	503
1	12939	794.777971408063	505
1	12949	795.080634804727	506
1	12967	797.734718961543	507
1	12974	798.123816813028	508
1	12981	799.024352193274	507
1	12984	799.074957166149	506
1	12986	799.308301807172	505
1	12988	799.380475231295	504
1	12996	799.771470814624	503
1	13002	800.295339142773	502
1	13006	800.364132276791	501
1	13011	800.667031716229	502
1	13012	800.718715528473	501
1	13014	801.113559864813	500
1	13019	801.524177482931	501
1	13026	801.957948975938	503
1	13060	803.893414529308	504
1	13072	804.193723212981	505
1	13102	805.905526811287	506
1	13104	806.072037688474	507
1	13106	806.114525183982	508
1	13176	809.658928166697	509
1	13189	810.636600745378	510
1	13195	810.921153234365	511
1	13198	811.165060754869	510
1	13229	813.061676237795	512
1	13248	814.049179054214	513
1	13250	814.092201566923	514
1	13258	814.350236009152	515
1	13260	814.377165836299	516
1	13295	816.065582352287	517
1	13317	817.295220893551	516
1	13324	818.121647515382	518
1	13340	818.950387829895	519
1	13350	819.559374235443	520
1	13352	819.785857530002	521
1	13358	820.125952450378	522
1	13379	821.373599191562	523
1	13397	822.451800575727	524
1	13403	822.87733404157	525
1	13406	823.067325135846	524
1	13415	823.847174284092	526
1	13417	823.862780705115	527
1	13429	824.406935933942	528
1	13440	825.287096931129	529
1	13470	827.112733292235	530
1	13474	827.254633709314	531
1	13477	827.379228070289	532
1	13481	827.603665330364	533
1	13485	827.887267918116	534
1	13489	827.993145071047	535
1	13493	828.284354942357	536
1	13501	828.9646922828	535
1	13502	829.084905293087	534
1	13506	829.222063439405	533
1	13511	829.604784040244	534
1	13512	829.715652898289	533
1	13536	831.01593530003	535
1	13551	832.036529397027	536
1	13589	833.638945111545	537
1	13591	833.726704321275	538
1	13595	833.749064655118	539
1	13599	833.813045466996	540
1	13616	834.847371157328	541
1	13620	834.93266726257	542
1	13634	835.836419899989	543
1	13664	836.923763495593	544
1	13666	836.928145270948	545
1	13672	837.119696551235	546
1	13678	837.316553128981	547
1	13696	838.362406429669	548
1	13700	838.593468253799	549
1	13722	840.232610931988	548
1	13723	840.283500188657	547
1	13726	840.504831545212	548
1	13731	840.711694211816	547
1	13735	841.30933532417	546
1	13742	841.814801555692	547
1	13756	842.877823154616	549
1	13758	843.13403448849	550
1	13766	843.210348378915	551
1	13772	843.710312678548	552
1	13798	845.26344832133	553
1	13811	846.091540041653	552
1	13812	846.100287491051	551
1	13817	846.136513638066	552
1	13818	846.138537255472	551
1	13822	846.556926446713	550
1	13830	847.058521738839	549
1	13835	847.403068825584	550
1	13838	847.529918864676	549
1	13843	847.678866580031	550
1	13844	847.735198901665	549
1	13856	848.805899784775	551
1	13885	851.536414270557	551
1	13891	852.05205809268	550
1	13897	852.592319743055	549
1	13900	852.638705682729	550
1	13904	852.852401448214	551
1	13907	853.051750318708	550
1	13915	853.288853416624	549
1	13921	853.42741832058	548
1	13925	853.493726135646	547
1	13931	853.805817341368	546
1	13959	855.365729721611	547
1	13962	855.69732854455	546
1	13963	855.752657061456	545
1	13981	856.412087599891	547
1	14001	857.389148178479	548
1	14015	858.273440156602	549
1	14018	858.408621517631	550
1	14022	858.478263532167	551
1	14037	859.76324878943	552
1	14053	860.385887509199	553
1	14083	862.501024476537	552
1	14089	862.77729447418	553
1	14092	862.985294483024	552
1	14095	863.089903059713	553
1	14098	863.369125685697	552
1	14100	863.505791208743	551
1	14102	863.680484329398	550
1	14108	863.837839162174	549
1	14110	864.331173270546	548
1	14113	864.381508088879	549
1	14212	869.251442643098	551
1	14229	870.339411337228	552
1	14263	872.361148762506	553
1	14286	874.178170731245	554
1	14306	874.825979751187	555
1	14340	875.819872464489	556
1	14342	875.882632495469	557
1	14348	876.106784865371	558
1	14356	876.328903678427	559
1	14358	876.349204715628	560
1	14387	878.078981521968	561
1	14403	878.870528050806	562
1	14413	879.500968286038	563
1	14420	880.034349616403	562
1	14431	881.053784207786	564
1	14449	881.973721607591	565
1	14455	882.199358663639	566
1	14463	882.487220102426	567
1	14495	885.703015123196	568
1	14499	886.456551553103	567
1	14506	887.25605726772	569
1	14516	887.481122647303	570
1	14530	888.774698684328	571
1	14536	888.929478555577	572
1	14542	889.253731136644	573
1	14565	890.721440570703	574
1	14590	892.498628446182	575
1	14612	894.060859756104	574
1	14616	894.298866562065	575
1	14623	894.87476912893	577
1	14629	895.131860283156	578
1	14651	896.369886710267	579
1	14658	896.711278327875	580
1	14666	897.004530654537	581
1	14672	897.173107687679	582
1	14722	900.505736814317	583
1	14746	901.514086007041	584
1	14774	903.536654142964	585
1	14776	903.558565198332	586
1	14800	905.73303217947	587
1	14811	906.964503322786	586
1	14815	907.144320351475	587
1	14816	907.183105865684	586
1	14822	907.589882064695	585
1	14830	907.801890936585	584
1	14836	908.130444104365	583
1	14839	908.13784580663	584
1	14844	908.477830054226	583
1	14850	908.597772769968	582
1	14855	908.637112866529	583
1	14862	908.795347227112	582
1	14866	909.225022540046	581
1	14869	909.311834146327	582
1	14870	909.461203508478	581
1	14936	912.528475437814	583
1	14964	913.985461232998	584
1	15008	916.245332768155	585
1	15010	916.343396305917	586
1	15028	917.57184856933	585
1	15032	917.892679669542	586
1	15035	917.984989388434	585
1	15037	918.051177653051	584
1	15047	918.476536911228	583
1	15051	918.675920630518	582
1	15056	919.002098980573	583
1	15059	919.135233345557	582
1	15083	920.43711021924	584
1	15133	923.058476296157	585
1	15193	925.509133291625	586
1	15210	926.020025749863	587
1	15218	926.409055807901	588
1	15222	926.440891742352	589
1	15230	926.691574328193	590
1	15250	927.960847273389	591
1	15252	928.010373061688	592
1	15254	928.046906153331	593
1	15287	929.991966390981	594
1	15325	933.110910399747	593
1	15326	933.111316870809	592
1	15334	934.060634777288	594
1	15353	935.500709848088	595
1	15362	935.820883182624	596
1	15366	935.836006296949	597
1	15440	939.749791582875	598
1	15444	939.814888534686	599
1	15462	941.428644457197	598
1	15465	941.544737957478	597
1	15470	941.805112871092	598
1	15503	943.814316351492	600
1	15523	945.006467803961	601
1	15532	945.674645853842	602
1	15540	946.003253532402	603
1	15582	947.791528167048	604
1	15584	947.844987208539	605
1	15603	948.707064021836	606
1	15610	949.107230761105	607
1	15621	949.777008931474	606
1	15622	949.932879482383	605
1	15641	951.4247450014	607
1	15645	951.714480821627	608
1	15660	953.249097148967	607
1	15661	953.404215712285	606
1	15663	953.593265703796	605
1	15669	954.117693082732	604
1	15681	954.978383036327	606
1	15685	955.091598290963	607
1	15715	956.961149426572	608
1	15740	958.047987582952	609
1	15746	958.084338561829	610
1	15785	960.935352736074	611
1	15787	961.005447930956	612
1	15789	961.035296237642	613
1	15805	961.431110037699	614
1	15815	961.829483584656	615
1	15843	963.62534010247	616
1	15875	965.700725301114	615
1	15880	966.035836780919	614
1	15904	967.581887077096	616
1	15906	967.601018908627	617
1	15950	970.746947751487	618
1	15956	971.205994478245	619
1	15972	972.512365635909	618
1	15976	972.775726850664	619
1	15978	972.849026745105	620
1	15983	973.031353760689	619
1	15987	973.466099520315	618
1	15993	973.767934015818	617
1	16003	974.115774062759	616
1	16005	974.159889851494	615
1	16007	974.29209546181	614
1	16014	974.75690724249	615
1	16015	974.871578696481	614
1	16018	974.904481607819	615
1	16021	975.148702108461	614
1	16024	975.283186859339	615
1	16031	975.568813946921	614
1	16034	975.649638958943	615
1	16036	975.774417271757	616
1	16037	975.793659217298	615
1	16041	975.953044970456	614
1	16045	976.299239911973	613
1	16047	976.501029118103	612
1	16067	977.519837357509	614
1	16110	980.237603610567	615
1	16111	980.585120994376	614
1	16176	984.198448148815	616
1	16188	984.837208366735	617
1	16202	985.479537947907	618
1	16212	985.962959975688	619
1	16248	988.009242411303	618
1	16311	992.225645808783	620
1	16315	992.332406814545	621
1	16351	994.811783418163	620
1	16354	995.216223611478	619
1	16360	995.653642799163	618
1	16368	995.942476303819	617
1	16370	996.020732553149	616
1	16373	996.3627668989	617
1	16375	996.548924723651	618
1	16377	996.553545492535	619
1	16386	996.916655731998	621
1	16392	997.161362712305	622
1	16418	998.642081830694	623
1	16438	999.801702450679	624
1	16449	1000.700263060152	625
1	16451	1001.164958546267	626
1	16478	1002.555464436383	627
1	16490	1003.03574716267	628
1	16492	1003.082895672687	629
1	16505	1003.6621776263	630
1	16515	1004.138725866159	631
1	16545	1005.377210312622	632
1	16550	1006.139146466651	631
1	16553	1006.364885448347	630
1	16557	1006.957695545448	629
1	16562	1007.177152615674	630
1	16563	1007.212369091264	629
1	16566	1007.278653174694	630
1	16569	1007.504539492025	629
1	16572	1007.568177871358	630
1	16579	1008.139697614963	632
1	16633	1011.376259866929	633
1	16635	1011.619954898058	634
1	16648	1012.318670883367	635
1	16662	1012.94181669278	636
1	16666	1013.073488412462	637
1	16668	1013.123954621665	638
1	16679	1013.743978387286	637
1	16680	1013.866271816674	636
1	16682	1013.971342555212	635
1	16688	1014.635466598533	637
1	16701	1015.308769402876	638
1	16708	1015.935569059784	639
1	16710	1015.949585127231	640
1	16718	1016.09549548621	641
1	16725	1016.717805332857	642
1	16731	1016.918821320292	643
1	16739	1017.33667055255	644
1	16748	1018.006787246903	643
1	16752	1018.491182791083	644
1	16789	1020.123216801031	646
1	16791	1020.298407357459	647
1	16799	1020.784646221951	648
1	16819	1021.38611449492	649
1	16827	1022.010633699099	650
1	16837	1022.581473556413	651
1	16860	1023.284954426246	652
1	16880	1024.57854648522	653
1	16921	1026.844033795362	654
1	16947	1028.194453662281	655
1	16949	1028.244108897475	656
1	16968	1029.357817954066	657
1	16977	1030.271601038492	656
1	16978	1030.39399908191	655
1	16980	1030.408940253183	654
1	17006	1031.490037559671	656
1	17040	1032.530492140788	657
1	17060	1033.054505213734	658
1	17089	1034.820586161344	659
1	17091	1034.842297783835	660
1	17122	1037.278832767717	659
1	17127	1037.445604437119	658
1	17129	1037.477582992014	657
1	17133	1037.571036545959	656
1	17149	1038.264067768066	658
1	17151	1038.47475945953	659
1	17156	1038.912110729847	660
1	17162	1039.25833005123	661
1	17165	1039.393337888598	662
1	17187	1041.092889646539	663
1	17193	1041.270805690509	664
1	17197	1041.396359849115	665
1	17215	1041.967786880981	666
1	17228	1043.067061709739	667
1	17231	1043.41933523714	666
1	17234	1043.458783298635	665
1	17237	1043.654857359107	666
1	17276	1045.921614202243	668
1	17278	1045.954263484423	669
1	17281	1046.209877047684	670
1	17291	1046.625426036064	671
1	17297	1046.818732523168	672
1	17299	1046.865931079997	673
1	17301	1046.990922341167	674
1	17307	1047.374472565096	675
1	17325	1048.52997743914	676
1	17338	1049.582211700032	677
1	17348	1049.898649415072	678
1	17368	1050.947030541457	679
1	17380	1051.658526534114	680
1	17420	1054.98758012257	679
1	17426	1055.082037808281	680
1	17429	1055.464596185115	679
1	17433	1055.606147597445	678
1	17461	1058.121442292451	680
1	17467	1058.243683769516	681
1	17475	1058.422476641605	682
1	17481	1058.512996914328	683
1	17483	1058.563502908482	684
1	17489	1058.655846179452	685
1	17497	1059.088559791236	686
1	17500	1059.238778738972	687
1	17504	1059.305056747686	688
1	17510	1059.540748041133	689
1	17526	1060.958482834284	690
1	17527	1061.051185999352	689
1	17529	1061.107631118705	690
1	17533	1061.251203395349	691
1	17534	1061.311064932618	690
1	17566	1062.86313865221	692
1	17568	1063.060593401915	693
1	17578	1063.491915438405	694
1	17590	1063.781161490546	695
1	17618	1065.110933634943	696
1	17670	1068.204526924956	697
1	17674	1068.313996626651	698
1	17705	1071.057997552739	699
1	17727	1072.311531027464	700
1	17741	1073.136924701712	701
1	17744	1073.192604158698	702
1	17777	1075.263660044718	703
1	17803	1076.355124233432	704
1	17816	1077.308762164992	703
1	17825	1078.414879986837	705
1	17837	1079.558398070709	706
1	17861	1081.140411818016	707
1	17863	1081.140814351882	708
1	17867	1081.242033567909	709
1	17869	1081.375610678715	710
1	17888	1082.150294784693	711
1	17902	1083.038663461552	712
1	17907	1083.138846091435	711
1	17976	1086.702086112107	713
1	18004	1088.575042852749	712
1	18009	1088.915058158076	711
1	18012	1089.217353085065	712
1	18014	1089.315075103422	713
1	18038	1090.690811539705	715
1	18083	1093.829072245232	714
1	18084	1093.869884308042	713
1	18086	1094.054399230818	712
1	18088	1094.16731369358	711
1	18091	1094.172927502654	712
1	18095	1094.421246080985	713
1	18102	1094.891559950498	715
1	18104	1094.969066254235	716
1	18124	1095.804715767563	717
1	18126	1095.845424690879	718
1	18130	1096.009330340572	719
1	18141	1096.558254754297	720
1	18173	1098.365187384526	721
1	18221	1101.940036805271	722
1	18232	1102.58110609938	721
1	18241	1102.775068962909	720
1	18244	1102.808728692251	721
1	18246	1102.859382612344	722
1	18252	1103.143683639458	723
1	18253	1103.338679415047	722
1	18305	1105.80960622624	724
1	18353	1107.784757562839	725
1	18363	1108.237891283365	726
1	18400	1109.582746052382	727
1	18412	1110.569557760764	728
1	18414	1110.582167984304	729
1	18418	1110.734126967291	730
1	18426	1110.941179441512	731
1	18450	1111.656158387734	732
1	18453	1111.803074080931	731
1	18455	1112.049692026491	732
1	18473	1113.767146853841	734
1	18487	1114.383443952475	735
1	18495	1115.103524893352	736
1	18497	1115.216417234404	737
1	18513	1115.84675557069	738
1	18532	1117.223322632548	737
1	18533	1117.3819000413	736
1	18541	1117.644193116803	735
1	18543	1117.763541480465	734
1	18546	1117.877659555336	735
1	18548	1117.90647153203	736
1	18552	1118.020297139235	737
1	18571	1118.969793904905	739
1	18575	1119.02861720914	740
1	18585	1119.30119237782	741
1	18595	1119.615811371544	742
1	18619	1120.745213782811	743
1	18633	1121.368860961596	744
1	18653	1122.535898815864	745
1	18689	1123.933261100652	746
1	18715	1125.186805639886	747
1	18735	1126.782247711371	746
1	18736	1126.900898557794	745
1	18738	1127.130953401889	744
1	18741	1127.416842428839	745
1	18742	1127.507963903543	744
1	18746	1128.018852782199	743
1	18752	1128.567568518832	742
1	18767	1129.104201993602	743
1	18784	1130.427315652314	745
1	18798	1130.807333986575	746
1	18800	1131.013561005385	747
1	18835	1133.079410332809	748
1	18842	1133.755218506088	747
1	18850	1134.328241109717	748
1	18853	1134.387793068763	750
1	18869	1135.416622560893	751
1	18871	1135.436345215107	752
1	18875	1135.588590623726	753
1	18878	1135.626956538032	754
1	18888	1136.770292393623	755
1	18909	1138.265404292154	756
1	18913	1138.398002836588	757
1	18921	1138.557716042977	758
1	18947	1141.243473765226	757
1	18979	1142.837855243425	759
1	18990	1143.407734107719	760
1	18994	1143.769450390015	761
1	19032	1146.458050931719	760
1	19035	1146.582526624134	759
1	19038	1146.613351051268	760
1	19049	1146.924959276276	759
1	19051	1147.008414541945	758
1	19057	1147.493827480202	757
1	19060	1147.6098313132	758
1	19066	1147.848867692715	759
1	19067	1148.040591342624	758
1	19075	1148.462075621813	757
1	19077	1148.686235870018	756
1	19079	1148.686952461371	755
1	19085	1149.469475103522	757
1	19113	1150.409071780389	758
1	19139	1151.380308754624	759
1	19147	1151.692777292488	760
1	19151	1151.76814953094	761
1	19153	1151.799738861334	762
1	19169	1152.753410472792	763
1	19179	1153.390562432678	764
1	19186	1153.87639120482	765
1	19203	1155.354323330581	766
1	19236	1158.804685992083	767
1	19239	1158.858272908293	766
1	19240	1158.942953878073	765
1	19249	1159.06744467681	766
1	19260	1159.537434845587	765
1	19266	1159.956809825085	764
1	19268	1160.091046030698	763
1	19276	1160.250111817865	762
1	19282	1160.886006978236	764
1	19294	1161.140268186406	765
1	19306	1161.665888072715	766
1	19338	1163.248852362374	767
1	19360	1164.231923334854	768
1	19398	1166.561755579716	769
1	19401	1166.714597201827	770
1	19428	1168.607068293055	769
1	19433	1168.780498228345	768
1	19437	1169.196872230683	767
1	19441	1169.248303338349	766
1	19453	1169.644319693478	765
1	19455	1169.704331247176	764
1	19457	1170.109003123725	763
1	19479	1171.079974686257	765
1	19511	1173.035905242949	766
1	19528	1174.276379570828	767
1	19554	1175.878251824165	768
1	19556	1176.032837393739	769
1	19562	1176.350375271156	770
1	19569	1176.842193275611	769
1	19576	1177.588894967775	771
1	19596	1178.53939483704	772
1	19614	1180.833856237098	773
1	19621	1181.345772847647	774
1	19635	1182.411324085782	775
1	19640	1182.596695864174	774
1	19641	1182.597759692834	773
1	19644	1182.699098804682	774
1	19647	1183.142156018198	773
1	19650	1183.292149611354	774
1	19653	1183.562720880113	773
1	19665	1184.186627472203	775
1	19717	1186.851259677123	776
1	19749	1188.276734899917	777
1	19767	1188.78870243103	778
1	19773	1189.427127643379	779
1	19782	1189.911120074233	780
1	19784	1190.255760985113	781
1	19798	1191.270729411832	782
1	19811	1191.994981403937	783
1	19828	1193.263443571169	784
1	19839	1194.008629062003	783
1	19841	1194.037840509513	784
1	19851	1194.506732655626	785
1	19871	1196.305839911959	787
1	19874	1196.525890286564	788
1	19890	1197.55246211298	789
1	19896	1198.066298379373	790
1	19901	1198.164540924914	791
1	19923	1198.848125631566	792
1	19931	1199.371813517008	793
1	19934	1199.658298722965	792
1	19935	1199.98530371769	791
1	19945	1200.658288492647	793
1	20003	1203.557917523597	794
1	20014	1204.311072841718	795
1	20039	1206.621936568095	794
1	20042	1206.87341464564	793
1	20044	1207.255686731648	792
1	20051	1207.5258900227	793
1	20060	1208.11826191049	795
1	20096	1209.756111412398	796
1	20112	1210.550992802818	797
1	20116	1210.623817259608	798
1	20122	1211.018476055794	799
1	20128	1211.237214733779	800
1	20136	1211.722975925912	801
1	20144	1212.152240616218	802
1	20159	1213.539007748549	803
1	20165	1213.778190017901	804
1	20167	1213.85647338145	805
1	20191	1216.082821709189	806
1	20195	1216.147936989766	807
1	20205	1216.791003679424	808
1	20207	1216.873429195821	809
1	20210	1217.089155886865	808
1	20211	1217.203672106229	807
1	20213	1217.4746642468	806
1	20215	1217.476543869037	805
1	20221	1217.907096071115	804
1	20224	1218.06573318951	805
1	20302	1222.096858725667	807
1	20308	1222.482854271747	808
1	20310	1222.613095179364	809
1	20314	1223.077348831548	810
1	20316	1223.121109273248	811
1	20320	1223.253497693923	812
1	20351	1225.425168192606	813
1	20353	1225.586249633546	814
1	20363	1226.659159673357	813
1	20367	1227.056507666097	814
1	20371	1227.198081656562	815
1	20412	1228.969075553249	817
1	20491	1233.625972706184	818
1	20494	1233.662196303497	817
1	20496	1233.692330148907	818
1	20503	1234.308454699859	820
1	20555	1239.398245342101	819
1	20561	1239.659326924377	820
1	20562	1239.660479868948	819
1	20596	1241.921996379991	821
1	20606	1242.294381264083	822
1	20626	1243.284202044795	823
1	20637	1243.847644836585	824
1	20645	1244.264275279906	825
1	20658	1245.076377828541	826
1	20668	1245.439282783998	827
1	20683	1246.116914447811	828
1	20689	1246.365535483484	829
1	20704	1247.154578153819	828
1	20707	1247.355117205266	827
1	20713	1247.901327354122	826
1	20717	1248.341130951886	825
1	20723	1249.15428316594	827
1	20772	1251.983381658732	828
1	20780	1252.379708598772	829
1	20801	1254.072453810293	830
1	20805	1254.506245230334	831
1	20825	1254.897595005499	832
1	20827	1255.074091076541	833
1	20839	1255.53701746933	834
1	20841	1255.629335615432	835
1	20854	1256.253522537188	836
1	20874	1257.586629609505	837
1	20883	1258.21883273957	836
1	20889	1258.521229887014	837
1	20902	1258.954563868783	839
1	20912	1259.691928274663	840
1	20938	1261.649509478604	841
1	20945	1262.090877459389	841
1	20953	1263.16043774405	842
1	20954	1263.290877459389	841
1	20962	1263.682220284442	842
1	20977	1264.966442795227	844
1	20981	1265.140367523003	845
1	21028	1268.104858367988	846
1	21053	1269.543905506018	847
1	21060	1269.595665434774	848
1	21064	1269.769434175272	849
1	21079	1271.06741244539	848
1	21080	1271.375671973997	847
1	21082	1271.467492537126	846
1	21084	1271.516579051909	845
1	21086	1271.565598542082	844
1	21091	1271.702898137822	845
1	21096	1271.971826838798	844
1	21100	1272.057229345429	843
1	21102	1272.195480619029	842
1	21104	1272.271138904664	841
1	21128	1274.078732667773	843
1	21136	1274.44509894662	844
1	21142	1274.87048764872	845
1	21150	1275.205966772652	846
1	21155	1275.852709009068	847
1	21176	1277.257699393117	848
1	21178	1277.26710917068	849
1	21182	1277.517594044754	850
1	21201	1278.907053451382	851
1	21202	1278.959903130955	850
1	21212	1279.13467982161	851
1	21231	1280.235351368358	853
1	21253	1280.795991974427	854
1	21335	1285.949702169434	855
1	21337	1285.989753385155	856
1	21345	1286.595819691343	857
1	21347	1286.615854333834	858
1	21355	1287.083830740035	859
1	21359	1287.821386292858	858
1	21388	1289.492644201869	860
1	21423	1292.097037645748	861
1	21437	1293.199418398639	862
1	21449	1293.431450339203	863
1	21457	1293.902672858505	864
1	21470	1295.191794583181	863
1	21475	1295.506516313003	862
1	21479	1295.793478331007	861
1	21485	1296.049282617398	860
1	21494	1296.56572192291	861
1	21511	1297.850176054196	863
1	21513	1297.921872648636	864
1	21521	1298.244292190563	865
1	21541	1298.748380160746	866
1	21554	1299.882656150224	867
1	21559	1300.199350906798	868
1	21596	1302.216876665934	869
1	21604	1302.648864599336	870
1	21606	1302.791407379233	871
1	21612	1303.559794661417	872
1	21613	1303.566836802579	871
1	21616	1303.598407290951	870
1	21620	1304.123456274019	869
1	21624	1304.572196400514	868
1	21626	1305.031516972763	867
1	21628	1305.122964555165	866
1	21631	1305.29420849378	867
1	21633	1305.435167338502	868
1	21658	1306.58173419376	870
1	21674	1307.620646986584	871
1	21679	1307.860392059377	872
1	21681	1307.865090011546	873
1	21683	1307.935079149622	874
1	21697	1308.751274943677	875
1	21706	1309.565301365099	876
1	21727	1310.751382313635	877
1	21732	1311.010055431084	876
1	21735	1311.564194971659	875
1	21737	1311.590122164014	874
1	21805	1316.674907076161	874
1	21806	1317.009253612322	873
1	21844	1319.736388389797	875
1	21859	1321.55744340414	876
1	21865	1321.825937116529	877
1	21883	1322.677299281818	878
1	21887	1322.834469697604	879
1	21898	1323.571869487599	880
1	21900	1323.584680283315	881
1	21902	1323.667684194208	882
1	21916	1323.996457312342	883
1	21918	1324.086565882226	884
1	21920	1324.204813325158	885
1	21927	1324.806949367698	886
1	21943	1325.774774302322	887
1	21949	1326.075163617578	888
1	21951	1326.100947023005	889
1	21983	1327.847852524136	890
1	21987	1327.93308035158	891
1	22011	1328.809324424602	892
1	22014	1329.179287469241	891
1	22015	1329.28942406862	890
1	22018	1329.507339664099	891
1	22023	1329.764710231422	890
1	22027	1329.860199304246	889
1	22031	1330.15196856673	888
1	22037	1330.256380336408	887
1	22039	1330.538699180915	886
1	22046	1330.921591064855	887
1	22053	1331.213773352449	889
1	22060	1331.956888486762	890
1	22068	1332.331025367192	891
1	22078	1332.878886820183	892
1	22119	1335.086003723476	891
1	22163	1338.212445715025	893
1	22176	1339.601308074015	894
1	22183	1340.027564395599	895
1	22194	1340.54687131912	894
1	22201	1341.340461748186	896
1	22205	1341.476361246999	897
1	22219	1342.516641746497	898
1	22223	1342.698408692842	899
1	22234	1343.494017133173	900
1	22246	1344.572951592504	901
1	22261	1345.283764915863	902
1	22280	1346.513177284274	903
1	22284	1346.697436428822	904
1	22289	1346.956304390484	903
1	22310	1348.553979510809	905
1	22328	1349.489881379105	906
1	22334	1349.6929427813	907
1	22338	1350.106641258249	908
1	22340	1350.346046658135	909
1	22342	1350.351613451609	910
1	22347	1350.677526994959	911
1	22389	1353.866781423221	912
1	22393	1354.198377277628	913
1	22394	1354.243956491928	912
1	22396	1354.513978588369	913
1	22397	1354.567271745937	912
1	22400	1354.659040703764	913
1	22409	1354.94766267191	912
1	22415	1355.192292591006	911
1	22420	1355.677896821206	912
1	22422	1355.750581516363	913
1	22437	1356.462979306633	915
1	22453	1356.796078300536	916
1	22457	1356.85937989026	917
1	22488	1358.711881707538	918
1	22501	1359.434116664686	917
1	22502	1359.597613163277	916
1	22514	1360.215592920579	918
1	22558	1362.47207357429	919
1	22567	1363.297415107712	920
1	22573	1363.525890334435	921
1	22579	1363.819838323794	922
1	22627	1366.891653127645	923
1	22659	1368.40832304931	924
1	22674	1369.63840638149	925
1	22676	1369.765820720025	926
1	22680	1369.830145284802	927
1	22692	1370.642380702446	926
1	22693	1370.761743389623	925
1	22696	1370.793452796326	926
1	22700	1370.991254703629	927
1	22719	1371.954835880561	929
1	22726	1372.288182890166	930
1	22730	1372.350132074342	931
1	22732	1372.370321884996	932
1	22742	1372.812942553415	933
1	22744	1372.825678598938	934
1	22768	1374.533013818388	935
1	22783	1375.922003653762	934
1	22784	1376.044983153083	933
1	22788	1376.315234129289	932
1	22793	1376.76078422717	933
1	22836	1379.170398939443	935
1	22842	1379.602854267226	936
1	22857	1380.164447964145	937
1	22873	1381.086122330261	938
1	22891	1382.380757876496	939
1	22923	1383.987940654885	940
1	22937	1384.689287014984	941
1	22939	1384.757948325041	942
1	22956	1385.970875915405	943
1	22958	1385.992972519355	944
1	22968	1386.503636812797	945
1	22978	1387.089009501876	946
1	22997	1388.580598408401	947
1	22999	1388.582954542131	948
1	23021	1389.313793053349	949
1	23023	1389.314163001009	950
1	23028	1390.002310122655	949
1	23036	1390.392836691991	950
1	23040	1390.441603569064	951
1	23047	1390.766631649117	953
1	23053	1391.093203528686	954
1	23059	1391.333420189113	955
1	23061	1391.722420587719	956
1	23065	1391.882576893877	957
1	23077	1392.748285913264	958
1	23093	1393.346443537307	959
1	23111	1394.040570082401	960
1	23137	1394.933358854954	961
1	23157	1395.802530707881	962
1	23161	1395.928202002551	963
1	23163	1395.937713891854	964
1	23170	1396.662056165993	965
1	23189	1398.153217864144	966
1	23227	1401.728668292584	965
1	23229	1402.060606272834	966
1	23231	1402.103621129038	967
1	23246	1403.115440452619	969
1	23250	1403.319032696694	970
1	23320	1407.650243804781	971
1	23334	1408.069694512017	972
1	23347	1408.806047126634	973
1	23353	1409.029225236091	974
1	23359	1409.481607826568	975
1	23371	1410.063497615718	976
1	23372	1410.349543621775	975
1	23378	1410.474850653523	976
1	23383	1410.693862309436	975
1	23385	1410.694749289297	974
1	23392	1411.199908221885	975
1	23393	1411.213037651291	974
1	23407	1412.478681504152	976
1	23499	1417.379089826069	977
1	23513	1417.871065392538	978
1	23517	1418.107855696456	979
1	23538	1419.225126827717	980
1	23574	1420.761681143501	981
1	23579	1421.318555056214	980
1	23600	1422.612768616101	982
1	23608	1422.76861707514	983
1	23624	1423.659721929163	984
1	23630	1423.941162031756	985
1	23650	1425.520921808542	986
1	23654	1425.795471066354	987
1	23659	1426.095877835628	988
1	23676	1427.161256879162	987
1	23677	1427.267999557806	986
1	23680	1427.336460121724	987
1	23681	1427.343658266129	986
1	23685	1427.437816858826	985
1	23694	1427.972232232552	986
1	23699	1428.154136564237	988
1	23709	1428.851655778706	989
1	23727	1429.573995927624	990
1	23748	1431.015192591384	991
1	23750	1431.022692630414	992
1	23770	1432.316123644394	993
1	23772	1432.422990506294	994
1	23776	1432.477487729544	995
1	23786	1432.963874023867	996
1	23803	1434.497655590674	995
1	23806	1434.588777858969	994
1	23810	1434.841576595858	993
1	23816	1435.117024177565	992
1	23818	1435.227849136191	991
1	23826	1435.977411814785	993
1	23846	1437.384842362598	994
1	23856	1437.736817608041	995
1	23858	1437.934728116613	996
1	23869	1438.372547025822	997
1	23884	1439.307109718711	996
1	23895	1439.975123156215	998
1	23903	1440.183115476122	999
1	23909	1440.420557558576	1000
1	23937	1441.419898737072	1001
1	23939	1441.490231836827	1002
1	23948	1442.207832187459	1003
1	23954	1442.377630555312	1004
1	23960	1442.48880307968	1005
1	23966	1442.746860812672	1006
1	23968	1442.750016845122	1007
1	24029	1446.939373339521	1008
1	24155	1454.021564981888	1009
1	24161	1454.396992044682	1010
1	24172	1454.767520428316	1011
1	24185	1455.741201118313	1010
1	24186	1455.767713511828	1009
1	24221	1458.291456188682	1011
1	24226	1458.470505489767	1012
1	24252	1460.192929683604	1013
1	24282	1461.70928227426	1012
1	24285	1461.821385870428	1011
1	24287	1462.069234415437	1010
1	24289	1462.138034616106	1009
1	24293	1462.634466908748	1008
1	24299	1463.075725374485	1007
1	24301	1463.246198195116	1006
1	24305	1463.819006325066	1005
1	24311	1464.231742029392	1004
1	24315	1464.378186138807	1003
1	24319	1464.826051569467	1002
1	24323	1465.001565442043	1001
1	24325	1465.087503846875	1000
1	24328	1465.207737653461	1001
1	24330	1465.263256346119	1002
1	24345	1466.272575533386	1004
1	24365	1467.116256452383	1005
1	24378	1467.852958214149	1006
1	24411	1469.901477683617	1007
1	24415	1469.941758855255	1008
1	24437	1471.082513712591	1009
1	24449	1471.787542950881	1010
1	24459	1472.002337066959	1011
1	24489	1474.132486197399	1010
1	24494	1474.55423145101	1009
1	24506	1475.171515407257	1011
1	24536	1476.393756108455	1012
1	24554	1477.140359768078	1013
1	24556	1477.203931345706	1014
1	24560	1477.292567037762	1015
1	24566	1477.464581853428	1016
1	24568	1477.507497781953	1017
1	24602	1478.665427624069	1018
1	24624	1479.476416638107	1019
1	24649	1481.126222747711	1020
1	24661	1481.819172062575	1021
1	24679	1483.286500281518	1022
1	24695	1484.212337776659	1023
1	24701	1484.530910556979	1024
1	24717	1485.218508547938	1025
1	24723	1485.480571260053	1026
1	24725	1485.65443887594	1027
1	24727	1485.746165650602	1028
1	24737	1486.173314039825	1029
1	24741	1486.274886756138	1030
1	24767	1487.470817233827	1031
1	24786	1490.074713988812	1030
1	24789	1490.211984894898	1029
1	24796	1490.426121731845	1030
1	24799	1490.653629944868	1029
1	24806	1491.176366643336	1030
1	24809	1491.222929543659	1029
1	24812	1491.25518160176	1030
1	24819	1491.740222721338	1029
1	24823	1492.19437248773	1028
1	24901	1495.857659719142	1030
1	24928	1497.98524537008	1031
1	24951	1499.287977887265	1032
1	24963	1500.015750574633	1033
1	24965	1500.040625439444	1034
1	24968	1500.485753120852	1035
1	24973	1500.993293542217	1034
1	24976	1501.34768444618	1033
1	24978	1501.405602332533	1032
1	24983	1501.721285223028	1033
1	24990	1502.010003415784	1035
1	25020	1503.833884000938	1036
1	25024	1503.992316473784	1037
1	25040	1504.811986463938	1038
1	25044	1504.886222568102	1039
1	25046	1504.934715346051	1040
1	25059	1505.335278715035	1041
1	25061	1505.360243518108	1042
1	25063	1505.412871240183	1043
1	25082	1507.152783291103	1044
1	25098	1507.778353379347	1045
1	25112	1508.44404182184	1046
1	25133	1509.460857481013	1047
1	25135	1509.487476907538	1048
1	25149	1509.9998909422	1049
1	25189	1512.566833599849	1050
1	25193	1512.593964145324	1051
1	25201	1512.929059786632	1052
1	25212	1513.6891776156	1051
1	25213	1513.963573661002	1050
1	25217	1514.510984250365	1049
1	25219	1514.698735239675	1048
1	25223	1514.913960872862	1047
1	25226	1514.966170973031	1048
1	25231	1515.455733469129	1047
1	25233	1515.554174234377	1046
1	25235	1515.578951740613	1045
1	25247	1515.960778223709	1044
1	25255	1516.538949278156	1043
1	25267	1517.373429521141	1045
1	25294	1518.43401182395	1046
1	25331	1520.7024115852	1047
1	25340	1521.576100090791	1048
1	25372	1523.317319584567	1049
1	25378	1523.509581140724	1050
1	25403	1524.8837761436	1049
1	25408	1525.397762129973	1048
1	25412	1525.513684879818	1047
1	25416	1525.861042797782	1046
1	25421	1525.973740799334	1047
1	25423	1526.127804544998	1048
1	25440	1526.891463280829	1050
1	25444	1526.950584219199	1051
1	25458	1527.769441672684	1052
1	25467	1528.474038839955	1053
1	25484	1529.329622553499	1054
1	25494	1529.89081784746	1055
1	25496	1529.920948441289	1056
1	25509	1530.487366974589	1057
1	25523	1531.322266159799	1058
1	25527	1531.398645565528	1059
1	25553	1532.241612696722	1060
1	25575	1534.04790029947	1061
1	25584	1534.811320927048	1060
1	25587	1535.118406684655	1059
1	25590	1535.243689140219	1060
1	25593	1535.43481815939	1059
1	25603	1536.077451328667	1061
1	25657	1538.389986022455	1062
1	25724	1541.867879288206	1063
1	25742	1543.22891185344	1064
1	25756	1543.797601102254	1065
1	25764	1544.06225494173	1066
1	25770	1544.585316985346	1067
1	25773	1544.666117491716	1066
1	25774	1544.923563195539	1065
1	25785	1545.477902758494	1066
1	25792	1545.530450794019	1068
1	25830	1547.819128166584	1069
1	25838	1548.309896716222	1070
1	25840	1548.474705134223	1071
1	25846	1548.52403635943	1072
1	25860	1549.118649055256	1073
1	25862	1549.164768284465	1074
1	25871	1549.969844142213	1075
1	25892	1551.018231057856	1076
1	25904	1551.571105915154	1077
1	25970	1555.031456708878	1076
1	25971	1555.053420783928	1075
1	25975	1555.156092781184	1074
1	25979	1555.556058367582	1073
1	25987	1556.154363698822	1072
1	25991	1556.627890931374	1071
1	25993	1556.868990821483	1070
1	25995	1557.033533137248	1069
1	25999	1557.098254131297	1068
1	26001	1557.135289886565	1067
1	26047	1558.739257280858	1069
1	26063	1559.62745575754	1070
1	26067	1559.993881392017	1071
1	26076	1560.301638648382	1072
1	26084	1560.685746985083	1073
1	26089	1561.203548702909	1074
1	26106	1562.533023119748	1075
1	26125	1564.724172907404	1074
1	26128	1564.976931012681	1073
1	26130	1565.471144091124	1072
1	26132	1565.672447121789	1071
1	26137	1566.004301763694	1072
1	26148	1566.995682007694	1074
1	26161	1567.990405721818	1075
1	26184	1569.870423671065	1076
1	26242	1573.427293114006	1075
1	26243	1573.782780061954	1074
1	26315	1577.318183450618	1076
1	26317	1577.518812358561	1077
1	26327	1578.116546097382	1078
1	26333	1578.339417906119	1079
1	26368	1580.425339640499	1080
1	26395	1582.981337215319	1079
1	26399	1583.546156081423	1080
1	26418	1585.10298419066	1082
1	26436	1585.964338170972	1083
1	26466	1587.176677599024	1084
1	26484	1588.024347033905	1085
1	26500	1588.579235225839	1086
1	26502	1588.768670575054	1087
1	26512	1589.325702472695	1088
1	26520	1589.686099786738	1089
1	26546	1591.082225258981	1090
1	26557	1591.916828048365	1091
1	26565	1592.521294364589	1092
1	26576	1593.47267136161	1093
1	26593	1595.244501980286	1094
1	26599	1595.462724699344	1095
1	26608	1596.417279669344	1094
1	26619	1597.600093547507	1096
1	26623	1597.831758052383	1097
1	26654	1599.741265666943	1098
1	26671	1600.358061456899	1099
1	26675	1600.548023537196	1100
1	26685	1601.386873196667	1099
1	26689	1601.398592437934	1100
1	26696	1601.881833254868	1099
1	26699	1601.887500376311	1100
1	26700	1601.917040027389	1099
1	26707	1602.135640687825	1100
1	26712	1602.345019196996	1099
1	26721	1602.903471433854	1100
1	26814	1607.287355135468	1102
1	26830	1608.058962607884	1103
1	26863	1609.587234288414	1104
1	26867	1609.796532131818	1105
1	26872	1609.998055660925	1104
1	26877	1610.22145990052	1103
1	26882	1610.460487834359	1104
1	26884	1610.49658943753	1105
1	26905	1611.219676208935	1107
1	26913	1611.43982808552	1108
1	26930	1612.278529082687	1109
1	26936	1612.664014180351	1110
1	26947	1613.339225430685	1111
1	26961	1614.271465018798	1110
1	26962	1614.457715567931	1109
1	26964	1614.509765344022	1108
1	26966	1614.707611472508	1107
1	26968	1615.085603645981	1106
1	26974	1615.628696279418	1105
1	27009	1617.657156080859	1107
1	27015	1617.881600362845	1108
1	27017	1617.991229032293	1109
1	27053	1620.39087545636	1110
1	27056	1620.833708001216	1109
1	27066	1621.406713896636	1110
1	27071	1621.475432856382	1112
1	27095	1622.523904954951	1113
1	27131	1626.507200269353	1112
1	27137	1626.917762837237	1113
1	27148	1627.316268221121	1115
1	27152	1627.573669648621	1116
1	27154	1627.599709836417	1117
1	27167	1628.232455480058	1118
1	27214	1631.080430190392	1119
1	27225	1631.820021067558	1120
1	27231	1631.860159332375	1121
1	27233	1631.908195637035	1122
1	27239	1632.045045521812	1123
1	27243	1632.1855641272	1124
1	27257	1632.819715376053	1125
1	27262	1633.267052912566	1124
1	27263	1633.721982135556	1123
1	27287	1634.825932124863	1125
1	27301	1635.416048714062	1126
1	27303	1635.511977541323	1127
1	27317	1635.929328790908	1128
1	27333	1636.853449564351	1129
1	27368	1638.555487502519	1130
1	27387	1639.453870281104	1131
1	27415	1640.456246125195	1132
1	27454	1642.722624735873	1133
1	27458	1642.886209933765	1134
1	27467	1643.113957596209	1133
1	27470	1643.587920831642	1132
1	27472	1643.728951718583	1131
1	27475	1643.839473286673	1132
1	27477	1643.94896026862	1133
1	27494	1645.042217225332	1135
1	27498	1645.24085933616	1136
1	27512	1645.863385085524	1137
1	27516	1646.067564654746	1138
1	27529	1646.44111897005	1139
1	27531	1646.569361389349	1140
1	27536	1646.993410840034	1141
1	27553	1648.168452707195	1142
1	27559	1648.416223094011	1143
1	27586	1650.049380145546	1142
1	27592	1650.532480494528	1143
1	27642	1653.676010866439	1145
1	27655	1654.64111303188	1146
1	27674	1655.690508478269	1147
1	27684	1656.158532486841	1148
1	27687	1656.722996044524	1147
1	27690	1657.032764163458	1146
1	27706	1657.872009294277	1148
1	27708	1657.996320036571	1149
1	27712	1658.144698201816	1150
1	27730	1659.240300894039	1151
1	27738	1659.573672431332	1152
1	27758	1661.222198878483	1153
1	27772	1662.795997703555	1154
1	27775	1662.861993535978	1155
1	27782	1663.716424195202	1154
1	27806	1665.801393539233	1156
1	27812	1666.161718329088	1157
1	27818	1666.410943690276	1158
1	27820	1666.501923733332	1159
1	27823	1666.823821860378	1160
1	27847	1667.874329967825	1161
1	27889	1669.97209899651	1162
1	27899	1670.212575497774	1163
1	27903	1670.371641405507	1164
1	27915	1670.873342893075	1165
1	27927	1672.178847170506	1164
1	27929	1672.594213598024	1165
1	27958	1674.016368869684	1167
1	27973	1674.980347520476	1168
1	27996	1676.841664446734	1169
1	28008	1677.414570721696	1170
1	28021	1678.364387901611	1171
1	28038	1679.373855555201	1170
1	28039	1679.439832931044	1169
1	28042	1679.591267722771	1170
1	28049	1679.850961402747	1169
1	28051	1679.921236745655	1168
1	28065	1681.472761137767	1170
1	28067	1681.56090931586	1171
1	28097	1682.899575361167	1172
1	28130	1685.148518551397	1173
1	28140	1685.547573786125	1174
1	28150	1686.309018990506	1175
1	28191	1688.90770039021	1176
1	28197	1689.135279385563	1177
1	28207	1690.213785720931	1176
1	28236	1691.933969451544	1178
1	28238	1691.949658184928	1179
1	28314	1697.10003923838	1180
1	28320	1697.437010603987	1181
1	28326	1698.330592746685	1182
1	28344	1699.351473803957	1183
1	28346	1699.454450266018	1184
1	28372	1700.391619939661	1185
1	28397	1702.254613518636	1186
1	28398	1702.378184353218	1185
1	28404	1702.58804723778	1186
1	28405	1702.697734871036	1185
1	28407	1702.734529978802	1184
1	28411	1703.091923149027	1183
1	28413	1703.28705902849	1182
1	28415	1703.658510300731	1181
1	28417	1703.71586749012	1180
1	28423	1704.432392507941	1182
1	28435	1705.217237640462	1183
1	28437	1705.234327865273	1184
1	28441	1705.390926762159	1185
1	28443	1705.395598993763	1186
1	28456	1706.254334263362	1187
1	28458	1706.388439767852	1188
1	28503	1709.160438008551	1189
1	28515	1709.625731225659	1190
1	28517	1709.636163497109	1191
1	28519	1709.697809562379	1192
1	28541	1711.581849726181	1191
1	28548	1712.455506767156	1193
1	28584	1713.783353592306	1194
1	28599	1714.844883242062	1195
1	28607	1715.388162274415	1196
1	28613	1715.604872397437	1197
1	28615	1715.911044126125	1198
1	28617	1715.962341654626	1199
1	28632	1716.59691726413	1200
1	28634	1716.610268001165	1201
1	28654	1717.89941952038	1202
1	28666	1718.398423421283	1203
1	28701	1721.506826745605	1204
1	28706	1722.022797152886	1203
1	28710	1722.21390768633	1204
1	28712	1722.392980407248	1205
1	28714	1722.402837415734	1206
1	28735	1723.476953830863	1208
1	28771	1725.453805581654	1209
1	28788	1726.235973215446	1210
1	28829	1728.267034182444	1211
1	28831	1728.415227625347	1212
1	28839	1729.159979239803	1213
1	28869	1730.829780994089	1212
1	28872	1730.929389983294	1211
1	28876	1731.118677889149	1210
1	28932	1735.007411210676	1212
1	28936	1735.123433042016	1213
1	28944	1735.733014324086	1214
1	28969	1737.145857430182	1215
1	28985	1738.402099694914	1216
1	28987	1738.442221943275	1217
1	28994	1739.090176838491	1218
1	29007	1739.910897075897	1219
1	29008	1740.093742549948	1218
1	29009	1740.125210871591	1217
1	29013	1740.511151478744	1216
1	29015	1740.636603686641	1215
1	29017	1741.059026959267	1214
1	29019	1741.1363301688	1213
1	29021	1741.443501889467	1212
1	29023	1741.483146408366	1211
1	29025	1741.493140340764	1210
1	29033	1741.787378005759	1209
1	29037	1741.963187414319	1208
1	29039	1742.123847996105	1207
1	29041	1742.12779700126	1206
1	29044	1742.145300237465	1207
1	29086	1745.808638566509	1209
1	29115	1747.566842299366	1210
1	29125	1748.226321686484	1211
1	29140	1748.705628421874	1212
1	29144	1749.032445853523	1213
1	29145	1749.107827401038	1212
1	29147	1749.13030386403	1213
1	29151	1749.2083619012	1214
1	29152	1749.241283906035	1213
1	29156	1749.364299450172	1212
1	29160	1749.918829972034	1211
1	29163	1749.932871014863	1212
1	29170	1750.368133968264	1211
1	29172	1750.478890933101	1210
1	29176	1750.869340623514	1209
1	29178	1750.915241779074	1208
1	29181	1751.136511769671	1209
1	29183	1751.205224586958	1210
1	29192	1751.562062794906	1212
1	29202	1752.003910858627	1213
1	29216	1752.372985572975	1214
1	29221	1753.133387270928	1215
1	29232	1753.89300344885	1216
1	29247	1754.915875764807	1217
1	29258	1755.625487370967	1216
1	29259	1755.667289709872	1215
1	29262	1755.723034207425	1216
1	29265	1755.752233461554	1215
1	29269	1756.281612541216	1214
1	29273	1756.40863136926	1213
1	29280	1756.918385559507	1214
1	29295	1757.419589851386	1216
1	29297	1757.434267769217	1217
1	29329	1758.908792241434	1218
1	29331	1758.916289966889	1219
1	29333	1759.378702230033	1220
1	29348	1760.415297717774	1221
1	29354	1760.629859811624	1222
1	29374	1761.474046989528	1223
1	29389	1762.55043882227	1224
1	29421	1764.716080365604	1223
1	29422	1765.209425291987	1222
1	29428	1765.639502975474	1221
1	29433	1766.020277430773	1222
1	29468	1768.186165696799	1224
1	29496	1769.253473802175	1225
1	29512	1769.999256055614	1226
1	29530	1770.600333290205	1227
1	29548	1772.235505763344	1228
1	29556	1772.422885350311	1229
1	29560	1772.598082756757	1230
1	29562	1772.619610815961	1231
1	29578	1773.340626078233	1230
1	29585	1773.616924457967	1229
1	29589	1773.925589940548	1228
1	29595	1774.230157721499	1227
1	29597	1774.347234381101	1226
1	29602	1774.612513046419	1227
1	29606	1774.674656441551	1228
1	29611	1774.90989511726	1227
1	29613	1774.950212338654	1226
1	29617	1775.148164442322	1225
1	29620	1775.171030070385	1226
1	29622	1775.281771687506	1227
1	29638	1776.634998334223	1229
1	29685	1779.894728378738	1230
1	29687	1779.916031913619	1231
1	29705	1780.617128117042	1232
1	29707	1780.617722020348	1233
1	29748	1783.596201982564	1234
1	29767	1784.588109545444	1233
1	29768	1784.594519763347	1232
1	29770	1784.684438122001	1231
1	29772	1785.167091385733	1230
1	29774	1785.349129835362	1229
1	29776	1785.401224861629	1228
1	29788	1785.823025989867	1227
1	29798	1786.485807943497	1229
1	29816	1787.587074465488	1230
1	29820	1788.044478249748	1231
1	29829	1788.512768228088	1232
1	29842	1789.103515067513	1233
1	29861	1789.886795976676	1233
1	29864	1789.910115546697	1234
1	29877	1790.723056925946	1235
1	29885	1791.238422766471	1236
1	29907	1791.875913470578	1237
1	29909	1791.876163314286	1238
1	29914	1792.116432410184	1237
1	29915	1792.244215441821	1236
1	29931	1793.799416273649	1238
1	29936	1794.23962253769	1239
1	29965	1796.338579365044	1240
1	29977	1797.316728962032	1239
1	29980	1797.619868124036	1238
1	29994	1798.277085669105	1240
1	30031	1800.339216208255	1241
1	30035	1800.452788640846	1242
1	30037	1800.585407851385	1243
1	30042	1800.821380389612	1244
1	30044	1800.896412309244	1245
1	30062	1801.532495054912	1246
1	30071	1802.25963633263	1247
1	30083	1802.888381996791	1248
1	30085	1802.926080337039	1249
1	30086	1803.087540771023	1248
1	30089	1803.382169609099	1247
1	30093	1803.674106423008	1246
1	30096	1803.797278430284	1247
1	30101	1804.052724090788	1246
1	30119	1804.873969712262	1248
1	30121	1805.041944222522	1249
1	30137	1805.548012584939	1250
1	30161	1806.980906131877	1251
1	30163	1807.272975530336	1252
1	30165	1807.469917842715	1253
1	30180	1807.932583305629	1254
1	30192	1809.105564553799	1255
1	30197	1809.676124680413	1254
1	30208	1810.340845792689	1256
1	30210	1810.449593610771	1257
1	30240	1812.11536956242	1258
1	30250	1812.729155700201	1259
1	30252	1812.783676866798	1260
1	30311	1815.613407611455	1261
1	30317	1816.068605565848	1262
1	30329	1816.576280342609	1263
1	30339	1817.548807423978	1264
1	30348	1817.819698220609	1265
1	30369	1819.313018215832	1266
1	30375	1819.63343101958	1267
1	30381	1819.870956251598	1268
[...]
17	53249	3155.220069150813	15.453140721984
17	53253	3155.316285854352	14.858917465074
17	53255	3155.339021699887	14.087610400895
17	53259	3155.498624029789	13.092118615887
17	53347	3160.415148390358	16.877179792599
17	53348	3160.597705384953	16.632225759394
17	53354	3160.854861811039	16.163190567332
17	53356	3160.874688162375	15.827487102563
17	53360	3160.936006088209	15.87672065248
17	53362	3160.938219271239	15.374059676554
17	53364	3160.948205374827	14.988837996663
17	53368	3161.161591574716	13.045347455533
17	53372	3161.410049639423	12.947792695781
17	53374	3161.457818608001	12.348846872624
17	53378	3161.518339686877	12.185872960858
17	53604	3174.241291203071	22.506052017485
17	53605	3174.471079815201	21.97603352808
17	53607	3174.629246428679	20.756319684481
17	53789	3185.827718768687	31.894593053384
17	53792	3186.16556628603	31.126848225993
17	53798	3186.279097596669	30.658242830855
17	53800	3186.333919026479	43.927413612577
17	53802	3186.400980819631	28.715820697212
17	53810	3186.582086775229	27.617129638575
17	53812	3186.649440815093	26.810914137525
17	53814	3186.689516547633	26.818799457779
17	53822	3186.908891816144	26.978318797171
17	53928	3194.883169366168	34.883347579143
17	53933	3194.996419240303	34.094564189
17	53937	3195.137915721098	33.818744230793
17	54067	3203.301975179026	40.39081271959
17	54068	3203.32751234086	38.655383204454
17	54070	3203.607334678586	38.881599809144
17	54072	3203.687978174659	38.773882008333
17	54074	3203.709596824682	37.824768684488
17	54076	3203.859757221458	37.808965995758
17	54078	3203.937064810796	36.328900984837
17	54080	3203.942603042492	35.246228945469
17	54082	3204.000103958427	35.277912912251
17	54084	3204.274667269246	35.54185819883
17	54086	3204.280980426203	34.815480754047
17	54142	3207.782648776426	38.287241004663
17	54145	3207.918299918283	37.504578128718
17	54149	3208.171543490592	37.400604862271
17	54151	3208.200746284164	36.303298836803
17	54153	3208.353902422743	35.294458647916
17	54159	3208.785973848366	54.913047104168
17	54165	3209.290937240285	32.493109652672
17	54167	3209.325960465459	32.505839925775
17	54171	3209.41464904087	31.568804123337
17	54173	3209.434232423628	30.323754336335
17	54175	3209.468600110685	28.885018636198
17	54179	3209.574487885688	28.070444193597
17	54315	3217.282054037589	35.170645178541
17	54318	3217.29269307979	34.324491461011
17	54320	3217.355356974445	31.743992640525
17	54332	3217.676522480044	57.745949461071
17	54334	3217.825914693665	27.782884258146
17	54336	3218.141969214601	26.152565074499
17	54338	3218.174285986387	26.120086756292
17	54342	3218.266249658236	24.432325084258
17	54344	3218.311635978204	23.77104025105
17	54346	3218.3416764409	23.386783490932
17	54554	3232.18296390136	31.499982242022
17	54555	3232.184154448935	30.076539379293
17	54655	3239.841159043028	35.268891069009
17	54656	3240.133267052421	70.667767380265
17	54662	3240.196332135475	35.067513244156
17	54664	3240.206759108148	34.954982313617
17	54666	3240.209578067202	32.561429191066
17	54668	3240.337671064399	31.889583308397
17	54672	3240.538155184511	30.4728703492
17	54678	3240.681329293766	59.177285601675
17	54682	3240.933018815279	29.779061522025
17	54684	3241.136485228389	29.369471045886
17	54692	3241.70244796147	29.661688709485
17	54696	3241.854407440421	28.130006034905
17	54698	3241.873158840861	28.038717114969
17	54702	3242.023561119565	28.158336117999
17	54706	3242.243989820232	28.099991773303
17	54708	3242.345959332985	27.590380104595
17	54710	3242.390733906895	26.779954213744
17	54712	3242.601469865964	25.090533832063
17	54766	3247.816087610736	28.252551444337
17	54835	3253.170203453428	31.982125854859
17	54840	3253.316243553343	31.775088144804
17	54844	3253.440411674223	31.333232153055
17	54846	3253.719417882321	30.757968091686
17	54856	3254.29604008512	30.758226350332
17	54860	3254.422755649551	30.202322815495
17	54866	3254.706972973079	27.327120498881
17	54876	3255.086068842429	25.543012775115
17	54886	3255.487130349085	22.753734868009
17	54890	3255.575576616511	53.467961546869
17	54902	3256.003134691668	20.820444110066
17	54910	3256.578467790218	19.527480238531
17	54914	3256.686132410943	18.360539036725
17	54920	3256.929923610798	18.58188611735
17	54922	3257.018189825026	18.663484787613
17	54924	3257.057135037143	17.699121739629
17	54926	3257.094557545419	15.36618654493
17	54930	3257.256723648666	14.611886293069
17	55132	3269.361215442913	24.93193580206
17	55133	3269.605254734779	22.969674482931
17	55135	3269.623827963672	50.060291797273
17	55139	3269.741744737671	21.220349793499
17	55149	3269.921934957056	20.542386259107
17	55151	3269.966113576938	18.150698106285
17	55153	3270.336360117974	18.26043668192
17	55155	3270.348643467355	17.175311666226
17	55157	3270.47090771323	16.150488696413
17	55159	3270.482951073938	16.033336761063
17	55167	3270.65110336119	15.926625685624
17	55175	3271.075541881563	15.955070346574
17	55177	3271.182079598786	15.657243573399
17	55179	3271.191467464721	14.946510589246
17	55181	3271.260755821725	14.819000339414
17	55183	3271.354579175399	14.580223153701
17	55185	3271.357836295378	12.223890004576
17	55191	3271.498825616372	12.161697668482
17	55193	3271.654469849987	12.285363530392
17	55199	3272.197676056445	11.802701309586
17	55205	3272.500657878581	11.639825769485
17	55273	3277.259284482911	16.049142585125
17	55274	3277.281498477172	13.898092437976
17	55278	3277.5997242123	13.649605654674
17	55282	3278.026792575001	13.801961024339
17	55286	3278.358872198252	14.091383212461
17	55288	3278.362369871198	9.468834247178
17	55294	3278.601648997289	8.836904412429
17	55296	3278.659546867415	6.80383884137
17	55382	3283.123117661779	7.92978072952
17	55385	3283.209017924113	7.36272365322
17	55393	3283.58794898998	4.909637406545
17	55395	3283.596135119671	4.83673223454
17	55515	3290.244010099432	9.026053587449
17	55516	3290.347450377012	9.068629128416
17	55522	3290.567008497862	8.925253648061
17	55524	3290.59752928262	6.486719316483
17	55526	3290.663175969446	6.241742482566
17	55528	3290.73115509567	5.972327824433
17	55530	3290.764143516201	5.71671697511
17	55716	3300.782234552834	14.518806409535
17	55717	3300.892566864859	11.619929216078
17	55719	3300.908276258698	11.352518449191
17	55949	3313.112786244128	20.915197455902
17	55952	3313.416150825953	20.844329294155
17	55956	3313.607921720786	20.675630496516
17	55958	3313.736533550301	20.585465167745
17	55962	3313.933994092915	18.785786197091
17	55974	3314.194337265294	17.795686194583
17	55976	3314.20414859947	17.172389058572
17	55984	3314.617016952565	16.26346031037
17	55986	3314.63473444691	16.198970525359
17	55988	3314.639267066125	15.12058107602
17	55990	3314.671543888834	14.093691116063
17	55994	3314.712722379639	13.770650830328
17	55996	3314.745301857741	13.736328190442
17	56106	3321.127991320241	18.303416625794
17	56115	3321.642618034829	17.664763424337
17	56117	3322.092801847202	17.436635908429
17	56123	3322.227567778352	17.317737915921
17	56125	3322.608449853836	16.505021604521
17	56127	3322.633639944558	16.076120811217
17	56129	3322.691032391837	15.277785998878
17	56131	3322.917491152601	10.329453692102
17	56301	3331.583334051901	18.925105987179
17	56302	3331.698835556949	18.711153052662
17	56390	3336.530196874971	22.117663900546
17	56393	3336.626014295543	21.687226523802
17	56399	3336.712735618912	21.531769834993
17	56513	3343.932690778262	27.993559802454
17	56516	3344.104934027663	25.990166871384
17	56520	3344.160545555252	25.630216965913
17	56524	3344.377005304369	25.68537495261
17	56530	3344.577451255803	25.047023129072
17	56532	3344.836872802579	23.634170836802
17	56534	3345.090421391448	23.725559779519
17	56538	3345.379387570828	32.791350110329
17	56542	3345.6032331444	21.989188015526
17	56546	3345.668505679557	22.027440881602
17	56548	3345.79720904931	21.417231257849
17	56550	3345.815425889799	20.120032351409
17	56552	3345.829682280972	19.732840138924
17	56554	3345.854596883668	19.293719321623
17	56564	3346.208414018199	19.542214359814
17	56566	3346.250876194151	18.081645323049
17	56568	3346.276047803222	17.478686503129
17	56570	3346.276081094162	16.661007809185
17	56572	3346.371216591766	16.415846091957
17	56574	3346.546082264604	15.318304129927
17	56578	3346.636684252492	14.368250607484
17	56582	3346.743249485326	33.755566981039
17	56590	3347.023759218379	14.689554051647
17	56592	3347.185848792818	14.557910295237
17	56594	3347.19061522837	14.195846235694
17	56600	3347.463883910598	13.426356804942
17	56606	3347.592424554546	12.637291036207
17	56608	3347.663498144849	11.839967369738
17	56612	3347.831913332335	10.788545430742
17	56833	3361.392063776013	21.297171275136
17	56834	3361.445756231227	21.218775901621
17	56836	3361.579847109963	20.508548991544
17	56840	3361.892546653561	20.293382609368
17	56842	3361.97877882197	20.344160858915
17	56844	3361.982180945559	19.778333272794
17	56848	3362.55927040687	18.490048496746
17	56850	3362.623795797459	17.264415915519
17	56902	3366.915004645785	21.370202307404
17	56907	3367.263451240379	21.655116813837
17	56909	3367.579834761766	21.677089049354
17	56911	3367.597497735328	20.609943220976
17	56915	3367.740234931955	20.176393981259
17	56917	3367.743698622877	20.163113693923
17	56921	3367.841002329407	30.797634427814
17	56923	3367.885450258078	18.408529168652
17	56925	3367.890733841608	18.348561511367
17	56927	3367.969560325818	18.415104269188
17	56931	3368.092676197963	17.949105293109
17	56941	3368.612411564225	17.714133650925
17	56943	3368.68330190223	16.730752663611
17	56947	3368.735278399107	15.655591451766
17	56951	3368.8226732118	13.378244999271
17	56955	3368.902691568275	13.015072167792
17	57133	3378.126625706011	19.094991502412
17	57134	3378.140297876754	18.470239509952
17	57136	3378.161867234678	17.739674378975
17	57138	3378.459369690577	15.544265263148
17	57146	3378.664462823998	33.305082942058
17	57150	3378.911889497669	15.470830095506
17	57154	3379.162096749249	13.698907803283
17	57156	3379.347541997966	12.122385431537
17	57160	3379.51099911435	11.765173138967
17	57162	3379.560293835326	11.451682811213
17	57170	3379.823502110791	10.987255527654
17	57172	3379.838787645192	9.991035187511
17	57312	3388.085422167547	17.794802268741
17	57313	3388.13489721299	17.16458297946
17	57315	3388.248990033251	17.18550736193
17	57397	3393.564273224186	22.330143765062
17	57452	3398.022078136122	26.602054112299
17	57455	3398.166068722481	24.152000081512
17	57457	3398.502441503292	23.890498378335
17	57503	3402.413345268935	24.593550673071
17	57504	3402.43600377218	23.862738353436
17	57506	3402.512419067389	22.152127632676
17	57508	3402.611748318634	22.197420315276
17	57510	3402.829870455107	32.982117997426
17	57512	3402.892385748326	21.385652528754
17	57518	3402.995196496247	21.37080198512
17	57520	3403.02106977631	20.812785394929
17	57524	3403.379737010756	19.135408063759
17	57526	3403.459460686086	16.424214761993
17	57532	3403.615669976907	16.443484557813
17	57534	3404.039465430756	16.532545946889
17	57540	3404.433597619116	16.915133175531
17	57542	3404.672624250549	16.755492852554
17	57616	3409.629423324735	38.565940653414
17	57617	3409.646652906501	20.584642140949
17	57621	3409.795367547471	19.626321649534
17	57627	3410.142996460646	19.872135479367
17	57629	3410.219913980308	17.650359817708
17	57631	3410.275125464037	16.821772220126
17	57767	3417.388493469575	22.315192196574
17	57768	3417.495336514827	42.88339338987
17	57774	3417.752705117464	16.214150884534
17	57858	3424.072926608121	22.441948156905
17	57861	3424.108860386528	20.9386313526
17	57865	3424.470658308105	20.88640337776
17	57869	3424.659524566434	20.49190955217
17	57871	3424.775771176667	36.858639778672
17	57881	3425.105740333299	18.160091136664
17	57885	3425.27707244561	17.018788533734
17	57887	3425.281839701991	16.305139348538
17	57889	3425.375660278411	15.665737771708
17	57991	3432.115927193466	22.171662945924
17	57992	3432.177676023347	21.507810105306
17	58160	3441.766402798179	29.910539406746
17	58161	3441.797070877846	29.733821327536
17	58165	3441.844317868581	29.541789853443
17	58173	3441.979214564034	28.898998001313
17	58175	3441.999526537205	28.766227191929
17	58177	3442.033260459667	28.182635636703
17	58249	3447.524011578704	33.154259448909
17	58252	3447.58710588985	33.151129044122
17	58256	3447.676596149423	29.990249546641
17	58258	3448.111188475402	46.572634242472
17	58260	3448.140576917181	28.818789452253
17	58262	3448.182885092822	27.862780331919
17	58270	3448.491208486944	24.410734671602
17	58272	3448.583163683826	24.43441659292
17	58276	3448.794020509563	24.304739927399
17	58278	3448.838233310861	23.833681521541
17	58280	3448.862651134856	23.30656064021
17	58282	3448.980241696647	39.270319189944
17	58284	3449.180899437355	19.245811255503
17	58286	3449.433174561597	17.457560941526
17	58300	3449.885089806992	16.734516903637
17	58302	3450.036189534026	16.398763690949
17	58380	3455.162494886626	17.143664308664
17	58383	3455.404563047017	16.225162888243
17	58385	3455.441261774829	15.268397924941
17	58389	3455.508826148749	14.556382250969
17	58391	3455.549101811032	14.422790510671
17	58393	3455.638024285641	13.787231690036
17	58403	3456.170308858704	13.734292229433
17	58407	3456.203523894197	42.352899071233
17	58411	3456.537398567951	10.75456170627
17	58415	3456.694880226804	9.847112579137
17	58417	3457.168419760262	7.479980354926
17	58419	3457.197714755307	7.379105137681
17	58421	3457.198824803124	6.610133196706
17	58525	3465.380092340327	13.618178519841
17	58532	3465.763047048588	12.986117012787
17	58534	3465.765382842919	12.162502820541
17	58536	3465.809352353683	11.853193540642
17	58538	3465.900671817413	11.896876921772
17	58540	3465.910375942539	10.440255398433
17	58548	3466.069107792009	10.217399032159
17	58552	3466.299113319692	10.107217771221
17	58554	3466.344994245686	9.042149436404
17	58658	3473.932364055475	12.559702993449
17	58663	3474.422288302164	12.732738993775
17	58665	3474.811768131488	11.392790338886
17	58667	3474.827597894255	11.047760366457
17	58677	3475.415420368002	6.624347420745
17	58773	3481.462591648229	12.302929539277
17	58778	3481.641515040602	11.997027680946
17	58844	3486.244457493276	16.113666941686
17	58845	3486.390587746999	16.178495532953
17	58849	3486.447689027864	12.712046901601
17	58851	3486.541617338836	12.743440899416
17	58911	3490.904922743556	10.359290820963
17	58918	3491.001730979347	10.183741700738
17	58920	3491.026609260046	21.38212190039
17	58924	3491.096450665967	8.198513512798
17	58926	3491.123932420787	7.633370261036
17	58934	3491.27780837751	7.335660643534
17	58936	3491.395444250699	6.34915806216
17	58940	3491.615011145132	6.010065281666
17	58944	3491.730319945996	5.733520558274
17	59022	3496.577532696639	9.092068973655
17	59025	3496.761521033719	9.119847342804
17	59101	3502.006894098162	12.991491716607
17	59102	3502.040006219165	11.733002634026
17	59108	3502.23745764924	10.499511326593
17	59110	3502.248785914566	10.462818583781
17	59112	3502.355351793122	9.914569161332
17	59116	3502.542446020269	9.94575674406
17	59220	3508.859656664051	14.339206368665
17	59221	3508.878708289857	14.037739870677
17	59227	3509.070029395534	13.61455992676
17	59233	3509.331147189302	12.859599174923
17	59237	3509.483193206612	12.130835999075
17	59239	3509.648313314566	22.006639623651
17	59245	3509.69773325469	12.032540464864
17	59313	3514.16321400792	15.867588810137
17	59314	3514.176632224162	15.095591990087
17	59316	3514.231820468196	15.074304782742
17	59318	3514.351313052758	14.901988873871
17	59320	3514.366492020971	14.158535579777
17	59328	3514.738100978333	14.333372614015
17	59330	3514.761603272059	14.309682593586
17	59334	3514.842375834676	13.958555920934
17	59338	3515.117144180677	12.262703646493
17	59344	3515.504626117417	12.287738792178
17	59562	3526.167984891168	21.10359156512
17	59705	3534.660673059732	29.519499631488
17	59706	3534.675750450101	27.6333151483
17	59708	3534.973814173493	26.931205158209
17	59710	3535.01976955467	26.959022031057
17	59712	3535.20522523041	26.950276279446
17	59716	3535.332771918954	25.650957082956
17	59718	3535.420558446961	25.735157784135
17	59720	3535.48091475932	25.433937195264
17	59722	3535.613046704108	37.947853914282
17	59730	3535.939009573451	24.529356955923
17	59736	3536.237498665964	22.945720751975
17	59742	3536.669111998341	23.088888504039
17	59804	3541.126681758025	27.091397829843
17	59813	3541.355357014623	26.451576675384
17	59817	3541.674598991477	26.047144118584
17	59819	3541.758324079699	25.682161742178
17	59823	3542.005696155947	25.864335811884
17	59827	3542.174594065041	25.904697192952
17	59829	3542.222302917289	25.369788554573
17	59947	3549.775207139396	31.37063932812
17	60052	3556.276703059607	37.592520437698
17	60053	3556.351337795255	37.323267775069
17	60065	3556.824272897504	37.62316985068
17	60067	3556.851012182536	37.52340760252
17	60069	3556.998130445515	35.195999588358
17	60071	3557.112739441173	35.268921420298
17	60145	3561.823228117606	37.437214243257
17	60148	3561.913871702408	37.084971035989
17	60150	3561.977847463118	36.872474831893
17	60152	3562.011033796377	36.83734854107
17	60154	3562.137207478096	36.944740867537
17	60156	3562.394633832239	57.330240506191
17	60162	3562.82491697292	36.042598446373
17	60166	3562.974112706976	36.091328905131
17	60170	3563.070218880414	35.908159144453
17	60172	3563.158758644714	35.331756491313
17	60178	3563.427708514796	34.307426606439
17	60184	3563.609233600566	33.163188540652
17	60186	3563.65036180686	32.228813224809
17	60190	3563.902559341665	30.875876595823
17	60192	3563.908596208464	28.255802124543
17	60200	3564.32325592035	28.476826001461
17	60204	3564.659624247529	28.581419978056
17	60206	3564.661290886505	51.081067392203
17	60216	3565.100346341383	27.411273777597
17	60222	3565.168187746481	26.374575387883
17	60224	3565.285782341684	25.759671257426
17	60228	3565.517093349955	25.406197187346
17	60236	3566.068985889204	25.637665211712
17	60434	3576.58671322421	33.337609324075
17	60437	3576.691941966155	33.110259740935
17	60439	3576.988931366054	31.832372162766
17	60441	3577.042440942852	30.56207410904
17	60449	3577.127729676089	30.529746133365
17	60457	3577.431365554175	30.776823655276
17	60459	3577.444322022089	30.687588782379
17	60461	3577.84938014628	30.219370324864
17	60463	3577.96672457152	29.566291641111
17	60469	3578.401661648933	29.220714753465
17	60555	3584.668757430406	66.26418961913
17	60558	3584.869101539408	32.802803934727
17	60560	3584.98581798316	31.994070790246
17	60562	3585.306029154659	31.684228649758
17	60566	3585.598221909122	31.405483631686
17	60572	3585.841419397595	30.085526117533
17	60630	3590.649414800069	34.064906257418
17	60635	3590.901479115932	34.291329084477
17	60643	3591.028634996787	33.74373704471
17	60645	3591.066856607499	69.223038586624
17	60647	3591.185532786973	32.985142658832
17	60649	3591.250838815097	32.461593392099
17	60651	3591.27412228735	32.370290874945
17	60653	3591.451328125057	31.263354200717
17	60657	3591.541350714306	29.132281284245
17	60659	3591.847145068356	29.337876360968
17	60661	3591.938818287749	29.024757930181
17	60663	3592.230839595457	29.23099685145
17	60667	3592.607943494666	29.01775540628
17	60669	3592.610722426936	29.015792554697
17	60673	3593.043445979941	29.235848980659
17	60677	3593.182865391706	28.980979468252
17	60681	3593.416637555074	27.385844131847
17	60749	3597.031572456442	29.51297774718
17	60754	3597.395309011741	29.30605956283
17	60756	3597.430414280873	28.669518449209
17	60758	3597.488270209195	28.472765794057
17	60764	3597.687379568705	28.311992996295
17	60766	3597.704370771008	28.011878726537
17	60770	3597.771964693448	28.067642676331
17	60772	3597.87160748748	27.971848738643
17	60780	3598.02819987469	27.537935195539
17	60784	3598.084485897133	25.606149983253
17	60786	3598.170265996836	25.331637682076
17	60790	3598.295176852481	24.634765434908
17	60798	3598.500999799915	23.029917093448
17	60800	3598.536412526485	22.259454836941
17	60802	3598.847573544596	22.461278696072
17	60804	3599.155580014034	22.597352895284
17	60808	3599.650726953402	22.585038276431
17	60810	3599.689685357238	22.400837524398
17	60812	3599.762474652587	21.058544680387

