version 2
run Net1-0-20200113-14:09:56-3644
attr configname Net1
attr datetime 20200113-14:09:56
attr experiment Net1
attr inifile omnetpp.ini
attr iterationvars ""
attr iterationvarsf ""
attr measurement ""
attr network Net
attr processid 3644
attr repetition 0
attr replication #0
attr resultdir results
attr runnumber 0
attr seedset 0
param **.gen.interArrivalTime1 exponential(0.2s)
param **.gen.interArrivalTime2 exponential(0.3s)
param **.gen.interArrivalTime3 exponential(0.4s)
param **.gen.interArrivalTime4 exponential(0.5s)
param **.gen.interArrivalTime5 exponential(0.6s)
param **.sys.serviceTime1 exponential(0.3s)
param **.sys.serviceTime2 exponential(0.4s)
param **.sys.serviceTime3 exponential(0.5s)
param **.sys.serviceTime4 exponential(0.6s)
param **.sys.serviceTime5 exponential(0.7s)
param **.gen.numberofpriority 5
param **.sys.numberofpriority 5
param **.sys.preemption true

vector 0 Net.sys qlen3:vector ETV
attr interpolationmode sample-hold
attr title "queue length, vector"
vector 1 Net.sys qlen2:vector ETV
attr interpolationmode sample-hold
attr title "queue length, vector"
vector 2 Net.sys responseTime1:vector ETV
attr interpolationmode none
attr title "response time at end of service, vector"
attr unit s
vector 3 Net.sys queueingTime2:vector ETV
attr interpolationmode none
attr title "queueing time at dequeue, vector"
attr unit s
vector 4 Net.sink lifetime:vector ETV
attr interpolationmode none
attr title "lifetime of arrived msg, vector"
attr unit s
vector 5 Net.sink arrivedMsg:vector ETV
attr interpolationmode none
attr title "number of arrived msg, vector"
vector 6 Net.sys qlen0:vector ETV
attr interpolationmode sample-hold
attr title "queue length, vector"
vector 7 Net.sys responseTime0:vector ETV
attr interpolationmode none
attr title "response time at end of service, vector"
attr unit s
vector 8 Net.sys queueingTime0:vector ETV
attr interpolationmode none
attr title "queueing time at dequeue, vector"
attr unit s
vector 9 Net.sys qlen1:vector ETV
attr interpolationmode sample-hold
attr title "queue length, vector"
vector 10 Net.sys queueingTime1:vector ETV
attr interpolationmode none
attr title "queueing time at dequeue, vector"
attr unit s
vector 11 Net.sys qlen4:vector ETV
attr interpolationmode sample-hold
attr title "queue length, vector"
vector 12 Net.sys responseTime2:vector ETV
attr interpolationmode none
attr title "response time at end of service, vector"
attr unit s
vector 13 Net.sys queueingTime3:vector ETV
attr interpolationmode none
attr title "queueing time at dequeue, vector"
attr unit s
vector 14 Net.sys responseTime3:vector ETV
attr interpolationmode none
attr title "response time at end of service, vector"
attr unit s
vector 15 Net.sys queueingTime4:vector ETV
attr interpolationmode none
attr title "queueing time at dequeue, vector"
attr unit s
vector 16 Net.sys responseTime4:vector ETV
attr interpolationmode none
attr title "response time at end of service, vector"
attr unit s
0	4	0.397937252283	1
0	12	1.301445960281	2
0	46	4.936501850523	3
0	62	7.05883280257	4
0	88	11.187453360622	5
0	99	12.769447151892	4
0	102	12.781382149338	5
0	105	12.973890559947	4
0	108	13.072863504676	5
0	113	13.862532842356	4
0	116	13.91179840425	5
0	120	13.995818559417	6
0	122	14.152526883688	7
0	137	16.190492426009	6
0	140	16.282909968861	7
0	142	16.570176172232	8
0	143	17.048619292015	7
0	145	17.11135602748	6
0	147	17.14862520176	5
0	154	18.562729450164	6
0	155	18.656442483173	5
0	157	18.798166506823	4
0	160	19.006968428439	5
0	161	19.064208923995	4
0	166	19.303359951223	5
0	167	19.43899056929	4
0	170	19.490572263177	5
0	171	19.502327210101	4
0	174	19.659457821883	5
0	175	19.848721796585	4
0	178	20.162393324466	5
0	179	20.205447367728	4
0	181	20.840143215739	3
0	183	20.980724127004	2
0	186	21.120277317082	3
0	194	21.472424083709	4
0	241	26.344520585329	3
0	244	26.495322762815	4
0	246	26.523986226027	5
0	247	26.823959669348	4
0	252	26.907491701676	5
0	261	27.343481978889	4
0	263	27.554187632518	3
0	268	27.902598264297	4
0	269	28.093948738728	3
0	275	29.368491056929	2
0	277	29.408269497818	1
0	279	29.554906766667	0
0	282	30.192625370221	1
0	283	30.262420482906	0
0	286	30.609047128254	1
0	287	30.701571580283	0
0	290	31.009695232755	1
0	292	31.305998812934	2
0	297	31.741867464743	1
0	300	32.117415319531	2
0	302	32.280085527296	3
0	306	32.477506084743	4
0	308	33.027929039788	5
0	309	33.084461325212	4
0	313	33.70952971772	3
0	318	34.54308012137	4
0	319	34.644255340654	3
0	322	34.666087210875	4
0	326	34.848806756906	5
0	347	36.396488354615	4
0	350	36.908251274722	5
0	351	36.994057566474	4
0	354	37.021832105418	5
0	355	37.173135247394	4
0	359	37.711089769866	3
0	361	38.220622256805	2
0	364	38.551750844501	3
0	366	38.677960840947	4
0	417	45.763899120303	3
0	421	46.342571259599	2
0	423	46.729034084593	1
0	425	46.740661953402	0
0	430	46.967983426513	1
0	433	47.29177948611	0
0	436	47.423590969515	1
0	441	48.08852152686	0
0	444	48.121873358107	1
0	445	48.176146907354	0
0	448	48.180102949486	1
0	459	49.018338897214	0
0	462	49.031481837038	1
0	463	49.225046883113	0
0	466	49.453821680502	1
0	472	49.64047061201	2
0	484	50.926413206298	3
0	493	51.844710958161	2
0	495	52.224788528795	1
0	500	53.594628477208	2
0	502	53.675563520564	3
0	510	54.50232521773	4
0	511	54.840886011017	3
0	513	54.950409172147	2
0	517	55.029719397916	1
0	520	55.886202503057	2
0	522	56.286599802162	3
0	523	56.380218233455	2
0	526	56.55160124123	3
0	528	56.626996746327	4
0	529	56.637132781993	3
0	531	56.680138012581	2
0	534	56.731570752345	3
0	535	56.871752522268	2
0	539	57.234331965377	1
0	542	57.297572742488	2
0	544	57.313146508143	3
0	546	57.540602430539	4
0	547	58.10268183697	3
0	549	58.112742496565	2
0	551	59.27468883906	1
0	554	59.395582726491	2
0	573	60.862466157448	1
0	576	60.94008605586	2
0	577	60.996349682308	1
0	579	61.007566964561	0
0	592	62.197876993532	1
0	593	62.572732480621	0
0	596	62.987542652297	1
0	597	62.997249693691	0
0	600	63.169135457762	1
0	602	63.259114128538	2
0	607	63.550558775966	1
0	613	64.271141319891	0
0	626	67.610044017834	1
0	655	70.706880598947	0
0	670	71.804270861443	1
0	677	72.10519690957	0
0	680	72.447526646169	1
0	682	72.468411947491	2
0	683	72.992299335891	1
0	686	73.037181200261	2
0	689	73.376287864034	1
0	692	73.619569324586	2
0	693	74.246670959631	1
0	696	74.5275053309	2
0	697	74.600852637513	1
0	700	74.654291334779	2
0	701	74.966152385755	1
0	704	75.198243551586	2
0	706	75.351046002493	3
0	708	75.424844018939	4
0	710	75.435277628244	5
0	712	75.513383051708	6
0	713	76.003431010478	5
0	715	76.234843626905	4
0	720	76.870347727939	5
0	723	77.225348499332	4
0	726	77.417246567499	5
0	728	77.783930404083	6
0	730	78.279682550532	7
0	732	78.27971022648	8
0	733	78.292234501432	7
0	735	78.516492477722	6
0	737	78.708237270646	5
0	739	79.040739768075	4
0	742	79.31012084692	5
0	743	79.392259954414	4
0	746	79.959849951182	5
0	747	80.142563334995	4
0	751	80.84043130505	3
0	754	80.966788732951	4
0	755	80.986062401253	3
0	758	81.744120201855	4
0	760	81.874440266543	5
0	763	82.752750567707	4
0	765	82.928521442799	3
0	767	83.154379053712	2
0	769	83.298333165374	1
0	772	83.804342255391	2
0	783	84.55969893286	1
0	785	84.840904818446	0
0	788	85.266421073845	1
0	789	85.464428200395	0
0	792	85.577835728727	1
0	793	85.639743126808	0
0	796	85.642878932322	1
0	797	86.170014520428	0
0	800	86.466917018902	1
0	801	86.504426795879	0
0	860	91.995242933265	1
0	869	92.363613919379	0
0	886	95.136247958281	1
0	887	95.216424836315	0
0	894	95.733515996544	1
0	895	96.198219500291	0
0	898	96.492320753162	1
0	899	96.698685686525	0
0	926	98.808580947686	1
0	927	99.483932995129	0
0	958	102.977156728183	1
0	959	103.052294543903	0
0	1030	110.692474353713	1
0	1039	111.341585333727	0
0	1042	111.577714991837	1
0	1044	111.68684653479	2
0	1045	111.996175719216	1
0	1049	113.057947613142	0
0	1052	113.276390239593	1
0	1053	113.306850464775	0
0	1062	113.640743228402	1
0	1063	113.784327755753	0
0	1068	114.017278575152	1
0	1071	114.260904357281	0
0	1074	114.647460217096	1
0	1076	114.939172102614	2
0	1077	114.950749189931	1
0	1080	115.533920228281	2
0	1082	115.700621897469	3
0	1087	115.903953955098	2
0	1090	116.164998923222	3
0	1091	116.201133820855	2
0	1093	116.236250560223	1
0	1096	116.631122573832	2
0	1097	116.723690962614	1
0	1101	117.62862010159	0
0	1104	118.116797645537	1
0	1105	118.206895169623	0
0	1138	120.056611894885	1
0	1146	120.837057831814	2
0	1157	122.35266566898	1
0	1159	122.37426736683	0
0	1188	124.28778072637	1
0	1228	128.231234090011	2
0	1237	129.336958239629	1
0	1240	129.463934594015	2
0	1241	129.466878924934	1
0	1246	129.720083367425	2
0	1247	130.42181259861	1
0	1249	130.580868459454	0
0	1316	139.87990388334	1
0	1318	139.888135525332	2
0	1324	140.267617912456	3
0	1361	143.667691373625	2
0	1365	144.003696397623	1
0	1367	144.045997566639	0
0	1376	144.663367466901	1
0	1397	147.160445455536	0
0	1480	158.301515360446	1
0	1483	160.144789671836	0
0	1486	160.310761193044	1
0	1487	160.375280444636	0
0	1490	160.451468147216	1
0	1492	160.589704505488	2
0	1494	160.73315905318	3
0	1496	160.862715181121	4
0	1498	160.896298543464	5
0	1499	161.131668341936	4
0	1502	162.403782679557	5
0	1503	162.464396851856	4
0	1506	162.536690954068	5
0	1507	162.730397489457	4
0	1509	163.022308973312	3
0	1511	163.05838599479	2
0	1514	163.121908819075	3
0	1516	163.777890359617	4
0	1518	163.838306057748	5
0	1519	164.549764645398	4
0	1522	164.905657255018	5
0	1524	165.064684527613	6
0	1527	165.207639273905	5
0	1530	165.374462531726	6
0	1536	165.873265669574	7
0	1546	167.158853085077	8
0	1549	167.374230811013	7
0	1552	167.375685512764	8
0	1555	167.780932086355	7
0	1557	167.915957582672	6
0	1559	168.519026971815	5
0	1561	168.9961602926	4
0	1564	169.369315740987	5
0	1566	169.515960808723	6
0	1568	169.730416726609	7
0	1569	170.214389259976	6
0	1571	170.229346117413	5
0	1574	170.425095980083	6
0	1576	170.505667269496	7
0	1577	170.576363825862	6
0	1580	171.88204488853	7
0	1582	172.497404314045	8
0	1596	173.18140166625	9
0	1621	175.602180716379	8
0	1623	175.781792518144	7
0	1626	177.013580222061	8
0	1633	177.454135836799	7
0	1635	177.645440465847	6
0	1637	178.010111324317	5
0	1640	179.491507243575	6
0	1642	179.748350050207	7
0	1648	180.196610610889	8
0	1657	180.954793666182	7
0	1661	181.788000030502	6
0	1664	181.970557657114	7
0	1667	183.260114222507	6
0	1670	184.179430707564	7
0	1674	184.301688005473	8
0	1675	184.447963306069	7
0	1677	184.688192224945	6
0	1679	185.042693357188	5
0	1682	185.228698430499	6
0	1684	185.2839563688	7
0	1686	185.643139286406	8
0	1691	186.053172906867	7
0	1694	186.133062139271	8
0	1696	186.435146866375	9
0	1697	186.620001435011	8
0	1699	187.363820283381	7
0	1704	188.020295977868	8
0	1705	188.187532641445	7
0	1708	188.359433137362	8
0	1711	188.597894988182	7
0	1713	188.788930797816	6
0	1715	189.259664815967	5
0	1717	189.355955280382	4
0	1719	189.555311654529	3
0	1724	189.871750376672	4
0	1737	190.993923285504	3
0	1744	191.326413446667	4
0	1747	191.482647106128	3
0	1749	191.497415292571	2
0	1752	191.566207102756	3
0	1754	191.775946764491	4
0	1755	192.067988527585	3
0	1757	192.073117338772	2
0	1760	192.24920481726	3
0	1761	192.366907750512	2
0	1763	193.071349832589	1
0	1765	193.145127372722	0
0	1772	193.705397291094	1
0	1773	193.993461100857	0
0	1776	194.092655685061	1
0	1784	194.879145653903	2
0	1794	195.944682347543	3
0	1797	197.53670067398	2
0	1799	197.546910048218	1
0	1803	198.207191166505	0
0	1848	203.153705388692	1
0	1855	204.474519322023	0
0	1858	204.533065540798	1
0	1859	204.847738786982	0
0	1894	208.975529167431	1
0	1900	209.222399128881	2
0	1926	211.851429396434	3
0	1958	213.954584923838	4
0	2016	219.696622537399	5
0	2022	220.169903057865	6
0	2024	220.618245976158	7
0	2082	229.307197585427	8
0	2086	229.381967938569	9
0	2088	229.414309741142	10
0	2090	229.425273431487	11
0	2092	229.563744544151	12
0	2102	230.306894351974	13
0	2109	231.3428833539	12
0	2111	231.417759209256	11
0	2113	231.65368958145	10
0	2115	231.721593580885	9
0	2117	232.246976859739	8
0	2120	232.323634724901	9
0	2121	232.781489140874	8
0	2123	233.602321553699	7
0	2126	233.70174126364	8
0	2127	233.728709741849	7
0	2132	234.999804973706	8
0	2133	235.889318100006	7
0	2135	236.195615197628	6
0	2140	236.516931204149	7
0	2143	236.564914468155	6
0	2145	237.257899188296	5
0	2147	237.383637879731	4
0	2150	237.43335205274	5
0	2151	238.025236514752	4
0	2154	238.57848066269	5
0	2156	238.582966356357	6
0	2158	238.603430052272	7
0	2159	238.611336377307	6
0	2163	239.190597857125	5
0	2166	239.46983342047	6
0	2167	239.479785382861	5
0	2169	239.54071464521	4
0	2172	239.608077262521	5
0	2173	240.589638907299	4
0	2176	241.28618471057	5
0	2178	241.304280117703	6
0	2179	241.412679552907	5
0	2182	241.622305353265	6
0	2184	241.683860580723	7
0	2187	241.867086833183	6
0	2190	242.240593440061	7
0	2191	242.516162414218	6
0	2193	242.579351065739	5
0	2200	243.707395327947	6
0	2201	243.746821816092	5
0	2203	243.936678250805	4
0	2206	244.037935228362	5
0	2207	244.172046774998	4
0	2212	244.281206579295	5
0	2213	244.478354320559	4
0	2215	244.557681280456	3
0	2217	244.811295153296	2
0	2220	244.837638485101	3
0	2221	245.09277418398	2
0	2224	245.338017949364	3
0	2292	251.251675511048	4
0	2320	254.650319674187	5
0	2324	255.309903256824	6
0	2371	258.063191075487	5
0	2374	258.58215119342	6
0	2376	258.765018947673	7
0	2391	260.151759433317	6
0	2394	260.192075707771	7
0	2406	260.769544900916	8
0	2418	262.32110354978	9
0	2421	262.817022812033	8
0	2423	264.318317601557	7
0	2427	265.172796210939	6
0	2429	265.444844261938	5
0	2432	265.570189140369	6
0	2439	266.048287502701	5
0	2441	266.22968438553	4
0	2443	266.314555648524	3
0	2446	266.35376283411	4
0	2451	266.559376211104	3
0	2454	266.565231215289	4
0	2455	266.602689472641	3
0	2457	266.904745141914	2
0	2461	267.009246674578	1
0	2463	267.038008994327	0
0	2478	269.657683563412	1
0	2480	269.750908380507	2
0	2482	269.793344086027	3
0	2487	271.070007265082	2
0	2490	271.53071959664	3
0	2491	271.729750099134	2
0	2493	272.154871744398	1
0	2496	272.887891882497	2
0	2502	273.457076407532	3
0	2510	274.260269947972	4
0	2515	274.928591109705	3
0	2517	275.261610144894	2
0	2519	275.262440732458	1
0	2522	275.309679162259	2
0	2524	275.395059217456	3
0	2526	275.586593250998	4
0	2529	276.846445683645	3
0	2533	277.465598105395	2
0	2536	277.557178204719	3
0	2537	277.737568787883	2
0	2542	278.096976406607	3
0	2548	279.612564573452	4
0	2553	280.218876129118	3
0	2555	281.573128414097	2
0	2560	282.06029175364	3
0	2565	282.53867924552	2
0	2567	282.707213938818	1
0	2572	282.970998345558	2
0	2573	283.061787954388	1
0	2576	283.564182091309	2
0	2577	284.075416608864	1
0	2579	284.284365789372	0
0	2582	284.332420265739	1
0	2583	284.397130218122	0
0	2586	284.453116024225	1
0	2590	284.775183946126	2
0	2592	285.063145432561	3
0	2594	285.13801803669	4
0	2597	285.567280292503	3
0	2599	285.7819918959	2
0	2601	286.892343283852	1
0	2603	286.941700823135	0
0	2606	286.982254024432	1
0	2608	287.631172309006	2
0	2614	288.008532705087	3
0	2620	288.326883254534	4
0	2626	288.560552016057	5
0	2644	289.517413699555	6
0	2652	290.447637915636	7
0	2665	292.172432450459	6
0	2667	292.187471202991	5
0	2669	292.211959903201	4
0	2671	292.21645770987	3
0	2674	292.304858204405	4
0	2675	292.514762382035	3
0	2678	293.091705860974	4
0	2684	293.517957080907	5
0	2685	293.730040297212	4
0	2688	294.135234015798	5
0	2689	294.192362689671	4
0	2691	294.557181665129	3
0	2693	294.817441378833	2
0	2695	295.367505701845	1
0	2698	295.678432585242	2
0	2709	296.655058915142	1
0	2714	296.8345968561	2
0	2715	296.914245368894	1
0	2717	296.985804290879	0
0	2728	297.485154623839	1
0	2731	298.161428264266	0
0	2734	298.16885748334	1
0	2735	298.503256825425	0
0	2770	300.183072716709	1
0	2771	300.591004252424	0
0	2774	300.833843770934	1
0	2779	301.170406803927	0
0	2822	305.808783718371	1
0	2823	305.839497202756	0
0	2830	307.295220115769	1
0	2835	308.050289200319	0
0	2838	308.375168870676	1
0	2839	308.761100890712	0
0	2842	308.951374380365	1
0	2850	309.530308715209	2
0	2857	309.834608269979	1
0	2860	310.270750016387	2
0	2881	312.610424205121	1
0	2883	312.78859244039	0
0	2894	315.099693745095	1
0	2896	315.322142979588	2
0	2900	315.535847145454	3
0	2910	316.289832901957	4
0	2915	316.75137359244	3
0	2917	317.016663695597	2
0	2920	317.085623958496	3
0	2922	317.825051999422	4
0	2924	318.482959115315	5
0	2927	318.615451821072	4
0	2929	318.741701963012	3
0	2931	318.947123010729	2
0	2934	319.286685519278	3
0	2935	319.522483379503	2
0	2938	319.631510170197	3
0	2941	320.425324813983	2
0	2944	320.434649803624	3
0	2949	321.409254876798	2
0	2952	321.651040629929	3
0	2968	322.651873678502	4
0	2973	323.057190833005	3
0	2976	323.137206552425	4
0	2978	323.741951791726	5
0	2979	324.216439769605	4
0	2982	324.236026118309	5
0	2984	324.492630308926	6
0	2986	324.679240173104	7
0	2989	325.776623697497	6
0	2992	325.893948812945	7
0	2994	326.107951388175	8
0	2995	326.202977605347	7
0	2998	326.294670795479	8
0	3006	327.547789872594	9
0	3009	327.638056743682	8
0	3011	327.882363052005	7
0	3013	328.528358241317	6
0	3015	328.644052034597	5
0	3018	329.26986070938	6
0	3020	329.331452395524	7
0	3024	329.799130318518	8
0	3058	334.157320581029	9
0	3068	334.919640579695	10
0	3076	335.78908912958	11
0	3088	337.760495354354	12
0	3134	341.210581555551	13
0	3154	342.637493202786	14
0	3160	343.202696321556	15
0	3163	343.515506280975	14
0	3165	343.745949223993	13
0	3168	343.814887839547	14
0	3169	343.903470045005	13
0	3171	345.236518366504	12
0	3174	345.283911673643	13
0	3175	345.363192201863	12
0	3178	345.646033021914	13
0	3179	345.762185703988	12
0	3182	345.815589958044	13
0	3218	348.541094173888	14
0	3238	351.476974535702	15
0	3253	353.471779082693	14
0	3257	354.530876150438	13
0	3260	354.615799018876	14
0	3263	354.977594902924	13
0	3265	354.983433206483	12
0	3267	355.965099050841	11
0	3269	356.053056526371	10
0	3272	356.501949765497	11
0	3273	356.91150203719	10
0	3276	356.999854597014	11
0	3277	357.601915177072	10
0	3279	358.008706490099	9
0	3282	358.02180691291	10
0	3283	358.518091471833	9
0	3286	358.849863848176	10
0	3287	358.946099459278	9
0	3290	359.021050675577	10
0	3291	359.235530351632	9
0	3293	359.242877854938	8
0	3295	359.262426247089	7
0	3298	359.463556169948	8
0	3300	359.495023410879	9
0	3326	360.992645738642	10
0	3331	361.502593596724	9
0	3333	361.890152768868	8
0	3338	362.997397425188	9
0	3339	363.015386092363	8
0	3342	363.234149074915	9
0	3343	363.312864461363	8
0	3345	363.753347751162	7
0	3347	363.827232655308	6
0	3349	363.845917215378	5
0	3352	363.869034229327	6
0	3353	363.908849938281	5
0	3356	363.919861411899	6
0	3362	364.176162198189	7
0	3365	365.06849044973	6
0	3368	365.296492536119	7
0	3369	365.302844325676	6
0	3372	365.30307079008	7
0	3373	365.317447365208	6
0	3376	365.409145723054	7
0	3377	365.520860883859	6
0	3379	366.440664727322	5
0	3381	366.973635188617	4
0	3383	367.13153172658	3
0	3386	367.277375373448	4
0	3387	367.358066531951	3
0	3390	367.412087531541	4
0	3392	367.896537732987	5
0	3393	368.175850530965	4
0	3395	368.788212021758	3
0	3398	368.812224223039	4
0	3399	368.884129900435	3
0	3401	369.787923497792	2
0	3404	369.999006753872	3
0	3406	370.94208116732	4
0	3407	371.279165282053	3
0	3410	371.386470505865	4
0	3415	371.544707247989	3
0	3417	371.803477247279	2
0	3419	372.186056278832	1
0	3421	372.360829368869	0
0	3430	372.750067016117	1
0	3440	373.490717163023	2
0	3444	373.637488364696	3
0	3448	374.030924090235	4
0	3488	376.484248316727	5
0	3492	376.703746118383	6
0	3494	376.71072715251	7
0	3498	377.202832652327	8
0	3539	380.212850321383	7
0	3542	380.520340925966	8
0	3559	382.702385885057	7
0	3561	382.702784546791	6
0	3564	382.782629893786	7
0	3565	382.79114417842	6
0	3567	382.986852656934	5
0	3569	383.109922842241	4
0	3571	383.233324314218	3
0	3574	383.350950084955	4
0	3576	383.938979948563	5
0	3580	384.075915556698	6
0	3581	384.168138001746	5
0	3584	384.177411189499	6
0	3585	384.508491918202	5
0	3587	385.120587955017	4
0	3590	385.285213305863	5
0	3591	385.349485582405	4
0	3594	385.432289754338	5
0	3596	385.591625010073	6
0	3600	386.027751411136	7
0	3601	386.028065502382	6
0	3604	386.167359430278	7
0	3605	388.080987550081	6
0	3608	389.254457966756	7
0	3609	389.265487564273	6
0	3612	389.810482409934	7
0	3613	389.842349827813	6
0	3615	389.868662150816	5
0	3617	390.168165202844	4
0	3620	390.886615176222	5
0	3644	393.495818989251	6
0	3649	394.031132098631	5
0	3652	394.207266119989	6
0	3657	395.826646891552	5
0	3660	395.954296492346	6
0	3661	396.129749328199	5
0	3664	396.13051480441	6
0	3665	396.789409205623	5
0	3668	396.925272381566	6
0	3669	396.974879819746	5
0	3673	398.031547945922	4
0	3680	400.080508642518	5
0	3681	400.373255458324	4
0	3686	400.767304501378	5
0	3693	401.247491876945	4
0	3695	401.383478708005	3
0	3698	401.58119561061	4
0	3699	401.674818429126	3
0	3702	401.746475202977	4
0	3703	401.835849729697	3
0	3706	401.93470099346	4
0	3715	402.474720629931	3
0	3718	403.406197596318	4
0	3731	405.387284712476	3
0	3733	405.45755721591	2
0	3735	405.592265923161	1
0	3737	406.190167687429	0
0	3808	413.786020440626	1
0	3821	414.723786723104	0
0	3824	414.853535292871	1
0	3829	415.057344924912	0
0	3832	415.198728496657	1
0	3847	418.133854288782	0
0	3850	418.678666901839	1
0	3855	418.834700833601	0
0	3892	422.459044960216	1
0	3901	424.768859283929	0
0	3926	428.35648627581	1
0	3929	428.892205209096	0
0	3974	434.714965213691	1
0	3990	436.420755422074	2
0	4003	437.929510142805	1
0	4006	438.539312045663	2
0	4007	438.580839113547	1
0	4010	438.985025875958	2
0	4011	439.205982049832	1
0	4013	439.498383332349	0
0	4026	441.181952361755	1
0	4027	441.195774736572	0
0	4030	441.235962134764	1
0	4031	441.445381759293	0
0	4054	445.633862781601	1
0	4060	446.216067171467	2
0	4062	446.356300990198	3
0	4068	446.809431049517	4
0	4073	447.165675626589	3
0	4076	447.517615213065	4
0	4078	447.935329711795	5
0	4083	448.061812337717	4
0	4085	448.257523730708	3
0	4087	448.331881930894	2
0	4090	448.389332897543	3
0	4091	448.421771287293	2
0	4094	448.610635334615	3
0	4112	449.149350455448	4
0	4143	452.907100245335	3
0	4145	453.17848785974	2
0	4147	453.2140007784	1
0	4151	454.144463785449	0
0	4174	459.390701954853	1
0	4179	460.203076770433	0
0	4182	460.241603954428	1
0	4184	460.320185665609	2
0	4188	460.599763870331	3
0	4222	466.452661358418	4
0	4225	466.87676306839	3
0	4227	467.486165063757	2
0	4230	467.728786793524	3
0	4237	468.105698361615	2
0	4240	468.806225534409	3
0	4242	469.193315549658	4
0	4246	469.384445506526	5
0	4249	469.91166976557	4
0	4252	470.191164959583	5
0	4261	470.677814771761	4
0	4264	470.847404835466	5
0	4266	470.90137387288	6
0	4267	471.074154741237	5
0	4269	471.154830055968	4
0	4272	471.233994923997	5
0	4273	471.309258584475	4
0	4276	471.325765932611	5
0	4278	471.40603952521	6
0	4288	471.795252044158	7
0	4289	472.009819492469	6
0	4291	472.257568417846	5
0	4294	473.262167893062	6
0	4296	473.39910697727	7
0	4297	473.455169566881	6
0	4299	473.470218148618	5
0	4301	474.182149613548	4
0	4304	474.405779105187	5
0	4307	474.837934256417	4
0	4309	474.937116983956	3
0	4311	475.978022232829	2
0	4314	476.315294315117	3
0	4315	476.346980292017	2
0	4317	476.512192108452	1
0	4320	476.823106737149	2
0	4322	477.406225211328	3
0	4324	477.475928633637	4
0	4337	478.957649887635	3
0	4339	479.385684558616	2
0	4341	479.968038198506	1
0	4343	480.142629271021	0
0	4382	484.322974261106	1
0	4387	485.316025349546	0
0	4402	487.559818850744	1
0	4403	487.672290539833	0
0	4406	487.674839446406	1
0	4408	487.951403941081	2
0	4409	488.878843303089	1
0	4411	489.51306244558	0
0	4418	489.589340977893	1
0	4419	489.71574475337	0
0	4440	491.37030864071	1
0	4448	491.941054704277	2
0	4451	492.09659948176	1
0	4454	492.286163989164	2
0	4472	493.016223883468	3
0	4481	493.754308730036	2
0	4486	494.189727177478	3
0	4489	494.398425109057	2
0	4491	494.407359862365	1
0	4493	494.617853956406	0
0	4496	494.88583015913	1
0	4505	496.097449958111	0
0	4508	496.107261302108	1
0	4509	496.130739706473	0
0	4512	496.290986837604	1
0	4514	496.331725340786	2
0	4515	496.470949438162	1
0	4517	496.532607540266	0
0	4520	496.590152296346	1
0	4522	496.652645778878	2
0	4524	497.23611825376	3
0	4525	497.851588777446	2
0	4529	497.918397492238	1
0	4537	499.92151390137	0
0	4540	500.209914221972	1
0	4543	501.078951243471	0
0	4610	509.369365064601	1
0	4611	509.696237861655	0
0	4614	509.88795100601	1
0	4617	510.164536895272	0
0	4642	513.889919520753	1
0	4643	513.956731075979	0
0	4686	521.820143862206	1
0	4728	526.800348715674	2
0	4742	527.087450086092	3
0	4754	528.318395494747	4
0	4756	528.577507218626	5
0	4793	533.411186746578	4
0	4796	534.796714543886	5
0	4802	535.428142119339	6
0	4805	535.9301173974	5
0	4807	536.210632359126	4
0	4809	536.295354369963	3
0	4812	536.758563974096	4
0	4814	536.910322199067	5
0	4815	536.924675032815	4
0	4817	537.072313586974	3
0	4819	537.273501172722	2
0	4821	537.495113397412	1
0	4825	537.560994331376	0
0	4828	537.944004793255	1
0	4847	540.015393674636	0
0	4850	540.066367693374	1
0	4855	540.201446387343	0
0	4858	540.223628839037	1
0	4859	540.447963092569	0
0	4862	540.600486664903	1
0	4863	540.723617788764	0
0	4870	541.114710607567	1
0	4872	541.283655320519	2
0	4873	541.393135404715	1
0	4875	542.78761201585	0
0	4902	547.376102871935	1
0	4956	550.963806314743	2
0	4963	551.891691748777	1
0	4965	552.566156652965	0
0	5040	563.469356988226	1
0	5045	563.748774323212	0
0	5048	563.765536689632	1
0	5049	564.002305230992	0
0	5052	564.136959320127	1
0	5055	564.327780044118	0
0	5058	565.368310085589	1
0	5060	565.871290748657	2
0	5061	565.892730666841	1
0	5064	566.608300156871	2
0	5066	566.656071497446	3
0	5069	566.864894274706	2
0	5071	566.941407129618	1
0	5074	567.630384699329	2
0	5076	567.758489156062	3
0	5077	568.82471976361	2
0	5079	568.922478057228	1
0	5082	569.024787671587	2
0	5084	569.2699137178	3
0	5100	571.668442897498	4
0	5102	572.261172009775	5
0	5130	575.021456813343	6
0	5131	575.523333234939	5
0	5134	575.537864796533	6
0	5135	575.602562832595	5
0	5138	575.614826680238	6
0	5151	576.64797283648	5
0	5154	576.703211702302	6
0	5155	576.767274391598	5
0	5159	577.747753925325	4
0	5162	577.955777326447	5
0	5164	578.081334770017	6
0	5165	578.70750949273	5
0	5168	579.013777370458	6
0	5169	579.028638409473	5
0	5171	579.110473218879	4
0	5173	579.270188785149	3
0	5176	579.318521731304	4
0	5177	579.343168891596	3
0	5180	579.749829249611	4
0	5185	580.123255953556	3
0	5188	580.845052829127	4
0	5193	581.254341143564	3
0	5195	581.666136856256	2
0	5197	581.692166075408	1
0	5199	581.704374187327	0
0	5218	582.871877224952	1
0	5248	585.542935123498	2
0	5256	586.64537604614	3
0	5289	589.793514204927	2
0	5291	590.602560155794	1
0	5293	591.255273133229	0
0	5304	592.820540346631	1
0	5326	594.183283453613	2
0	5334	594.906160682667	3
0	5335	595.990646832282	2
0	5338	596.878664541566	3
0	5339	596.967368452402	2
0	5343	597.495963338753	1
0	5346	597.684324978205	2
0	5348	597.740626830632	3
0	5351	598.161601618549	2
0	5354	598.524455396359	3
0	5359	599.199372227182	2
0	5363	599.489168514534	1
0	5367	599.788825422153	0
0	5370	599.905137926947	1
0	5389	601.415142396091	0
0	5392	601.558222458441	1
0	5393	601.911370771039	0
0	5396	602.309194754763	1
0	5399	603.008906148324	0
0	5414	605.343332200983	1
0	5416	605.357223767821	2
0	5425	606.657908767867	1
0	5430	607.534067249355	2
0	5432	607.656700576875	3
0	5434	607.656810802175	4
0	5435	607.674580577917	3
0	5438	607.816729326999	4
0	5440	608.12676833461	5
0	5443	608.635325354493	4
0	5445	608.699723000912	3
0	5448	608.751282457368	4
0	5450	609.310195509767	5
0	5452	609.354222280857	6
0	5455	610.541521145195	5
0	5457	610.664491862013	4
0	5459	610.685861538049	3
0	5461	611.007676076573	2
0	5463	611.472218060417	1
0	5465	611.912580799632	0
0	5468	611.974316050038	1
0	5473	612.195191480322	0
0	5476	612.416259214583	1
0	5477	614.134404473663	0
0	5480	614.148137271456	1
0	5481	614.180618175618	0
0	5484	614.328356515634	1
0	5486	615.145569198875	2
0	5487	615.180027957255	1
0	5489	615.492340279203	0
0	5492	615.603320421601	1
0	5493	615.653829511046	0
0	5522	619.535508124897	1
0	5534	621.171959777418	2
0	5537	621.67264860203	1
0	5539	621.732622642687	0
0	5546	622.678059686049	1
0	5551	623.163904877283	0
0	5558	623.398060393049	1
0	5578	627.599955429758	2
0	5586	627.763535261418	3
0	5598	629.012841861076	4
0	5614	629.390498147298	5
0	5626	630.837295424935	6
0	5630	631.450293640587	7
0	5632	631.494276373165	8
0	5662	633.869359101588	9
0	5677	635.682316595087	8
0	5681	636.117016445308	7
0	5683	636.439681060496	6
0	5686	636.80790099986	7
0	5692	637.444772492884	8
0	5695	638.608087999164	7
0	5697	638.81712576718	6
0	5699	639.046210436751	5
0	5701	639.308294848427	4
0	5704	639.33211381169	5
0	5709	639.524713276183	4
0	5711	639.625651369758	3
0	5714	639.70582337378	4
0	5745	643.04404947064	3
0	5747	643.049691055246	2
0	5749	643.864661166787	1
0	5752	644.269125120677	2
0	5762	644.438521291827	3
0	5763	644.507009120793	2
0	5765	644.901160021977	1
0	5767	645.012218024392	0
0	5774	645.577375994275	1
0	5775	645.734592397572	0
0	5778	645.744224326532	1
0	5780	645.966642465971	2
0	5781	645.990008092962	1
0	5783	646.049318764193	0
0	5786	646.153078603878	1
0	5787	646.169414515808	0
0	5790	646.357194410798	1
0	5801	647.755438374984	0
0	5810	648.895414312447	1
0	5812	648.95828282924	2
0	5813	649.559688647374	1
0	5816	649.680109809895	2
0	5838	650.697278189314	3
0	5851	651.579969378812	2
0	5858	652.923230173874	3
0	5860	653.282022038308	4
0	5861	653.544582505401	3
0	5864	653.634880168444	4
0	5865	653.736167670354	3
0	5868	653.86593919791	4
0	5870	653.953448865845	5
0	5871	653.956427799926	4
0	5874	653.968617204212	5
0	5875	654.003805034801	4
0	5878	654.04554240776	5
0	5879	654.194840246564	4
0	5881	654.918491949609	3
0	5884	655.503768162546	4
0	5909	658.57113563504	3
0	5912	658.613933885859	4
0	5915	658.834385548663	3
0	5918	659.015598725862	4
0	5935	661.22868633873	3
0	5938	661.260759068783	4
0	5940	661.988408322314	5
0	5941	662.1432838224	4
0	5944	662.48536830099	5
0	5954	663.428055400294	6
0	5974	666.765148439966	7
0	5977	667.563273107421	6
0	5979	668.057391932001	5
0	5981	668.065168466166	4
0	5984	668.675681363515	5
0	5985	669.151906986859	4
0	5987	669.347386820456	3
0	5989	669.523726527705	2
0	5991	669.998778281071	1
0	5994	670.149289250521	2
0	5996	670.218808738595	3
0	5997	670.332261643173	2
0	5999	670.899989321637	1
0	6001	671.053851553997	0
0	6018	672.631554327416	1
0	6054	678.537107374314	2
0	6059	679.83863408324	1
0	6061	679.979035095913	0
0	6082	682.56544663713	1
0	6084	682.971032217332	2
0	6085	683.003286507601	1
0	6089	683.067359590999	0
0	6092	683.450686405769	1
0	6093	683.638903018149	0
0	6102	684.479341554567	1
0	6103	685.04903961026	0
0	6106	685.468951408394	1
0	6108	686.398950259976	2
0	6109	686.550556552329	1
0	6112	686.610393927038	2
0	6113	686.635782317411	1
0	6116	686.884967323903	2
0	6117	686.973244073031	1
0	6120	687.093790798382	2
0	6121	687.176778071753	1
0	6124	687.241897676046	2
0	6126	687.48118353911	3
0	6127	687.808342548215	2
0	6129	688.803413484127	1
0	6131	688.919037036244	0
0	6142	689.382797483662	1
0	6144	689.741535281101	2
0	6145	689.844873051229	1
0	6149	690.405223919799	0
0	6200	696.075007296992	1
0	6212	696.400870848584	2
0	6221	698.473709215578	1
0	6224	698.574869803393	2
0	6232	699.860955744644	3
0	6237	700.119020392105	2
0	6239	700.438796438339	1
0	6241	700.772375185064	0
0	6244	701.094360275591	1
0	6245	701.112544783381	0
0	6250	701.340827950349	1
0	6251	701.657567367301	0
0	6280	705.908413080226	1
0	6281	705.947320321465	0
0	6284	706.16286641359	1
0	6295	706.858737645604	0
0	6336	712.873058675747	1
0	6338	712.894591240967	2
0	6359	714.563169052372	1
0	6362	714.588264104151	2
0	6363	714.980052007669	1
0	6365	715.182584232042	0
0	6368	715.346169587066	1
0	6387	717.298238915384	0
0	6410	718.413205117717	1
0	6412	718.798370892808	2
0	6430	720.713721897145	3
0	6433	721.203234401002	2
0	6435	721.269057335179	1
0	6438	721.285530399453	2
0	6440	721.568829606969	3
0	6449	722.072533091837	2
0	6452	722.301947272044	3
0	6454	722.607628295473	4
0	6455	723.021204592732	3
0	6457	723.146217421206	2
0	6459	723.183584932883	1
0	6462	723.604132898623	2
0	6464	723.985691261559	3
0	6465	724.124458544156	2
0	6467	724.537330270821	1
0	6469	724.642127987107	0
0	6486	725.612087443634	1
0	6488	725.991829672701	2
0	6490	726.132425292309	3
0	6493	726.405077529805	2
0	6495	727.025275766437	1
0	6498	727.562846062399	2
0	6499	727.890093506572	1
0	6502	728.063971037259	2
0	6503	728.298665193029	1
0	6506	728.512323202782	2
0	6507	728.552851852966	1
0	6509	728.645341497202	0
0	6512	728.865231035681	1
0	6514	729.246718866405	2
0	6515	729.277929225997	1
0	6518	729.532803757837	2
0	6520	729.924101952295	3
0	6524	730.18462966922	4
0	6525	730.285036036297	3
0	6527	730.365265732223	2
0	6530	730.579557147351	3
0	6531	730.637068282503	2
0	6533	731.76912661606	1
0	6536	732.244597094535	2
0	6537	732.335552680836	1
0	6542	732.875507677675	2
0	6544	733.173048185796	3
0	6548	733.435944801518	4
0	6559	735.411090100015	3
0	6561	736.318880313609	2
0	6563	736.366053482461	1
0	6566	736.611056995826	2
0	6577	737.475633407252	1
0	6579	737.548184693192	0
0	6582	738.994369020676	1
0	6583	739.026706130039	0
0	6586	739.250413506642	1
0	6587	739.347407929409	0
0	6608	743.030476776582	1
0	6616	743.762404490077	2
0	6617	744.141221630779	1
0	6620	744.241766765592	2
0	6621	744.300596383	1
0	6623	744.414706943724	0
0	6626	744.933775266577	1
0	6627	745.082762805266	0
0	6658	748.252561675149	1
0	6668	749.610401217672	2
0	6698	751.447452239616	3
0	6710	751.899371841528	4
0	6715	752.895353509869	3
0	6718	753.539884108709	4
0	6727	754.383188120482	3
0	6729	754.502742259607	2
0	6731	754.608964886245	1
0	6734	754.684602489181	2
0	6738	754.927282680467	3
0	6739	755.029225213953	2
0	6741	755.743610887161	1
0	6744	755.88504741021	2
0	6745	756.041027066377	1
0	6748	756.04689970013	2
0	6750	756.059677136385	3
0	6751	756.345095826621	2
0	6754	756.920710279929	3
0	6761	757.74937374815	2
0	6763	757.750331252498	1
0	6765	758.369426308121	0
0	6774	760.022313460425	1
0	6784	760.761475373813	2
0	6786	761.01371871926	3
0	6794	761.975798385621	4
0	6802	762.786011594961	5
0	6818	764.389854060346	6
0	6823	764.848026005667	5
0	6826	765.122520510921	6
0	6827	765.230323581214	5
0	6829	765.260648312709	4
0	6831	765.672642586343	3
0	6834	765.858499895748	4
0	6835	765.94594824324	3
0	6838	766.31544162973	4
0	6856	767.528849401286	5
0	6876	769.203711441044	6
0	6907	772.242306648613	5
0	6910	772.38888069718	6
0	6912	772.402667949051	7
0	6916	772.726263380485	8
0	6918	772.79960491323	9
0	6919	772.854205826899	8
0	6922	772.980667665889	9
0	6936	773.777149525586	10
0	6939	774.758433694145	9
0	6942	774.792393610179	10
0	6943	775.006792258927	9
0	6946	775.134650951186	10
0	6948	775.515064881938	11
0	6953	776.068279390059	10
0	6955	776.278275478614	9
0	6958	776.448725476032	10
0	6959	776.80094512569	9
0	6962	776.815271588477	10
0	6963	776.966233367094	9
0	6966	777.006450479406	10
0	6968	777.137519137576	11
0	6977	777.56249178419	10
0	6981	777.826845117939	9
0	6984	777.990256429882	10
0	6988	778.399947327661	11
0	6997	779.771698157702	10
0	7000	780.386802575894	11
0	7008	781.063444963029	12
0	7021	782.350287352057	11
0	7023	782.442862914095	10
0	7025	782.706319313903	9
0	7027	782.969007997017	8
0	7029	782.995920079099	7
0	7031	783.65713716028	6
0	7033	783.779291960375	5
0	7036	783.825887764296	6
0	7038	783.96126067288	7
0	7039	784.062627590427	6
0	7042	784.254125593604	7
0	7043	784.415495361665	6
0	7046	784.816371752166	7
0	7051	786.005511766893	6
0	7053	786.094494361231	5
0	7057	786.251916595653	4
0	7060	786.290737069892	5
0	7062	786.53398012141	6
0	7063	786.66040787743	5
0	7065	786.959705541903	4
0	7070	787.072626004077	5
0	7072	787.088604900637	6
0	7073	787.243881092734	5
0	7078	787.291077473509	6
0	7085	788.140824553357	5
0	7087	788.761220071299	4
0	7089	790.274635454818	3
0	7092	790.317498653975	4
0	7093	790.37130213387	3
0	7096	790.650872450717	4
0	7097	791.004262033038	3
0	7100	791.271056087904	4
0	7105	792.158533679641	3
0	7107	792.477281164368	2
0	7109	792.550530462634	1
0	7111	792.646137075229	0
0	7114	793.238346823669	1
0	7115	793.306566039841	0
0	7118	793.341127735086	1
0	7119	793.341221100742	0
0	7122	793.418612046619	1
0	7123	794.267269085957	0
0	7126	794.655463323479	1
0	7127	794.919008675559	0
0	7130	795.043224286735	1
0	7156	796.86607695306	2
0	7162	797.29108075057	3
0	7176	800.150614652061	4
0	7197	802.382890334205	3
0	7202	803.142319328982	4
0	7203	803.201704091387	3
0	7208	803.78610149425	4
0	7209	804.457395847378	3
0	7212	804.495347041837	4
0	7213	804.763114700956	3
0	7216	804.935694289375	4
0	7220	805.286151643011	5
0	7225	806.147461287674	4
0	7228	806.285140571572	5
0	7229	806.354502367689	4
0	7233	806.618543063898	3
0	7236	807.063188769624	4
0	7243	809.244646406842	3
0	7246	809.247118518661	4
0	7262	811.418039549797	5
0	7266	811.651193215121	6
0	7318	817.824284282813	7
0	7340	820.0492260251	8
0	7369	822.82700392134	7
0	7371	823.322130729942	6
0	7374	823.811355097432	7
0	7375	824.291625949819	6
0	7377	824.322585783166	5
0	7379	824.482801587959	4
0	7381	824.810580152793	3
0	7383	824.881042691566	2
0	7385	825.059258415386	1
0	7388	825.076655332568	2
0	7393	825.699681569312	1
0	7396	825.796866076529	2
0	7399	826.028611592893	1
0	7401	826.034996890988	0
0	7404	826.60815267805	1
0	7405	826.710965772433	0
0	7408	827.948292968926	1
0	7409	828.046424200057	0
0	7412	828.076870243608	1
0	7415	828.126817820478	0
0	7418	828.538583444897	1
0	7430	830.394332020859	2
0	7448	832.442650978031	3
0	7492	836.390018807297	4
0	7528	839.846003832883	5
0	7554	841.884590230748	6
0	7596	847.392883370198	7
0	7616	849.181400274988	8
0	7622	850.579877388358	9
0	7656	854.33322045474	10
0	7664	854.976895719761	11
0	7670	855.626615697648	12
0	7676	856.227071712706	13
0	7683	856.887272331073	12
0	7686	856.93564640971	13
0	7691	857.460226879921	12
0	7695	858.325840591178	11
0	7699	859.475714008552	10
0	7704	860.103161564451	11
0	7705	860.8190385472	10
0	7708	861.061411758215	11
0	7709	861.199166086448	10
0	7711	861.256391960012	9
0	7713	861.279581363004	8
0	7718	861.607661289914	9
0	7721	862.136053654483	8
0	7724	862.436081234231	9
0	7726	862.787794594117	10
0	7729	862.983265274632	9
0	7731	863.151046647854	8
0	7735	863.537402300135	7
0	7737	863.565486411994	6
0	7739	863.637289379162	5
0	7742	864.049153217331	6
0	7743	864.667232461794	5
0	7746	864.979465375251	6
0	7770	866.15953472801	7
0	7774	866.505559125259	8
0	7775	866.518898075152	7
0	7777	866.765621211669	6
0	7779	866.785956064881	5
0	7781	866.912581684532	4
0	7783	867.073947662971	3
0	7790	868.665039871333	4
0	7792	869.528004466585	5
0	7793	869.870306479522	4
0	7802	870.627915946691	5
0	7856	875.123710473135	6
0	7872	877.230050025571	7
0	7876	877.942512515046	8
0	7886	880.354770621614	9
0	7890	880.594258794354	10
0	7916	884.461525604237	11
0	7928	885.559741371267	12
0	7942	886.722257511771	13
0	7957	888.180006972151	12
0	7959	888.339651810817	11
0	7962	888.345904349207	12
0	7964	888.407102943636	13
0	7965	888.510103181154	12
0	7968	888.631655696511	13
0	7969	888.731756536752	12
0	7972	888.87199738287	13
0	7973	889.29231041212	12
0	7975	889.476328015187	11
0	7977	889.950557720022	10
0	7980	890.04931843325	11
0	7982	890.199902292575	12
0	7983	890.334240643309	11
0	7985	890.428916397344	10
0	7988	891.033911156979	11
0	8003	892.048972997997	10
0	8006	892.103136689074	11
0	8009	892.304933542067	10
0	8012	893.079866775235	11
0	8023	894.085469551175	10
0	8025	894.484133246664	9
0	8029	895.047809390949	8
0	8034	895.944726345394	9
0	8036	895.951779600893	10
0	8037	896.056213982191	9
0	8040	896.330466500395	10
0	8041	896.40342802498	9
0	8045	896.43652188788	8
0	8048	896.690207242793	9
0	8052	897.018589058016	10
0	8073	897.766788851929	9
0	8076	898.298275721515	10
0	8077	898.315144542217	9
0	8081	898.51009919875	8
0	8084	898.579412681395	9
0	8086	898.833520288989	10
0	8088	899.050766811903	11
0	8089	900.476636670814	10
0	8094	901.325639459878	11
0	8119	903.522568480235	10
0	8122	904.336269135849	11
0	8123	904.93089873552	10
0	8125	905.00754962621	9
0	8128	905.170528013563	10
0	8138	906.248537620236	11
0	8157	909.547337964313	10
0	8160	909.565900256647	11
0	8162	910.112102169816	12
0	8163	910.389012645174	11
0	8165	910.65543506844	10
0	8168	910.746939541676	11
0	8169	911.010525759754	10
0	8172	911.020476403622	11
0	8186	912.091338369785	12
0	8194	912.812987814015	13
0	8204	913.282295304304	14
0	8205	913.313932225827	13
0	8208	913.323335637849	14
0	8212	913.844125995633	15
0	8223	915.17959775408	14
0	8226	915.205828735418	15
0	8227	915.288939665053	14
0	8229	915.299245572435	13
0	8234	915.78403961329	14
0	8240	916.488930081357	15
0	8252	917.661769785569	16
0	8267	918.330925000043	15
0	8270	918.3869561648	16
0	8285	919.317675812457	15
0	8287	920.265336495648	14
0	8289	920.591830673961	13
0	8292	920.659110241601	14
0	8301	922.064123893677	13
0	8303	922.606670105139	12
0	8305	922.893525050152	11
0	8308	922.938250122751	12
0	8309	923.156946826738	11
0	8312	923.398441531563	12
0	8313	923.577189319855	11
0	8315	923.603730177548	10
0	8318	923.872908972431	11
0	8319	923.911645732742	10
0	8322	924.195558512107	11
0	8323	924.639313289704	10
0	8326	925.030856613677	11
0	8328	925.349868096201	12
0	8346	926.607431921562	13
0	8352	927.518148759036	14
0	8355	927.799991889	13
0	8357	927.980854908285	12
0	8359	928.215682661982	11
0	8361	928.316221249482	10
0	8364	929.070097476461	11
0	8388	931.004889341751	12
0	8401	932.13363038021	11
0	8403	932.33587782234	10
0	8405	932.533870872942	9
0	8407	932.759490843967	8
0	8410	932.789097398099	9
0	8417	934.260764718801	8
0	8421	934.450566447568	7
0	8423	934.608621923814	6
0	8426	934.636100882437	7
0	8432	935.078086003014	8
0	8456	937.603497423035	9
0	8460	938.821200940487	10
0	8472	940.728383269195	11
0	8473	940.849707259928	10
0	8475	941.24896854334	9
0	8478	941.303237172525	10
0	8480	941.340153230558	11
0	8481	941.36206568449	10
0	8486	942.480911365519	11
0	8495	943.119596467081	10
0	8497	943.54356556144	9
0	8500	943.693671970396	10
0	8502	943.742601332841	11
0	8503	944.229392021151	10
0	8506	944.596510203803	11
0	8508	944.683658090863	12
0	8509	944.709116174542	11
0	8511	945.281412821173	10
0	8513	946.573009687075	9
0	8517	946.850587509289	8
0	8519	947.248987193263	7
0	8521	947.51325705288	6
0	8523	947.564537867136	5
0	8526	947.875130046452	6
0	8528	948.220872842095	7
0	8530	949.354685138561	8
0	8533	950.021371430557	7
0	8535	950.40312781915	6
0	8537	950.647579652827	5
0	8539	950.656444312405	4
0	8541	950.768333222586	3
0	8543	951.491124579604	2
0	8546	951.568060168694	3
0	8564	953.024276940747	4
0	8584	954.298353083716	5
0	8600	956.372721179553	6
0	8606	956.736395657779	7
0	8626	959.014535969103	8
0	8638	960.16637917235	9
0	8640	960.422217554367	10
0	8648	960.883779260292	11
0	8658	961.463708995418	12
0	8667	962.190926769004	11
0	8672	962.767293407051	12
0	8673	962.977349029524	11
0	8675	963.078307505978	10
0	8677	963.145424346743	9
0	8680	963.493520634643	10
0	8683	963.870029314347	9
0	8686	963.963508034868	10
0	8705	967.018644964919	9
0	8708	967.449681525893	10
0	8711	968.242364378207	9
0	8714	968.469415109775	10
0	8715	968.654879346208	9
0	8717	968.728280237939	8
0	8722	969.196285165763	9
0	8723	969.367115327126	8
0	8726	969.833144973693	9
0	8727	969.857975680733	8
0	8730	969.913955137615	9
0	8734	970.154170931128	10
0	8737	970.270428106776	9
0	8740	970.446259506691	10
0	8742	970.567618276325	11
0	8743	971.295784289058	10
0	8745	971.307340831676	9
0	8748	971.595357366005	10
0	8749	971.601138603562	9
0	8751	971.606227810572	8
0	8754	971.685338313666	9
0	8771	974.679649931231	8
0	8773	974.689424407902	7
0	8776	974.998344845019	8
0	8777	975.226171723558	7
0	8780	975.301729004487	8
0	8782	975.520181211133	9
0	8783	976.01465152216	8
0	8788	976.492930488671	9
0	8789	976.642830681254	8
0	8792	976.892424411549	9
0	8797	977.39476516722	8
0	8799	977.731346167855	7
0	8802	977.834334767149	8
0	8805	978.06696874654	7
0	8807	978.170520896457	6
0	8809	978.233177901999	5
0	8811	978.549276551762	4
0	8814	978.561559876117	5
0	8818	979.102384163427	6
0	8828	980.999357663471	7
0	8833	981.281226979425	6
0	8836	981.387684811487	7
0	8848	981.94238668299	8
0	8849	982.036670820038	7
0	8852	982.09249449967	8
0	8853	982.331853702631	7
0	8857	982.982588322435	6
0	8859	983.025342769884	5
0	8861	983.387168263078	4
0	8863	983.393670019722	3
0	8866	984.054168327029	4
0	8867	984.066316772549	3
0	8869	984.215782617671	2
0	8871	984.978384855167	1
0	8873	985.203255684628	0
0	8876	985.801582406258	1
0	8881	986.265030656867	0
0	8948	995.39214580936	1
0	8949	995.593947956161	0
0	8954	996.214463886321	1
0	8970	997.185669025702	2
0	8990	999.165227643836	3
0	8999	1000.432805409697	2
0	9001	1000.448915728666	1
0	9004	1000.553543824861	2
0	9005	1000.759472608442	1
0	9007	1000.902241465207	0
0	9018	1001.75955970527	1
0	9037	1004.07455089377	0
0	9088	1010.652499676944	1
0	9098	1011.95532256484	2
0	9118	1013.495385139682	3
0	9120	1013.594264974847	4
0	9128	1014.539891438465	5
0	9144	1015.832055416513	6
0	9147	1016.042531918556	5
0	9149	1016.116408589904	4
0	9151	1016.456419492022	3
0	9153	1016.966996285497	2
0	9155	1017.613936354334	1
0	9158	1017.796183339516	2
0	9162	1018.055287608793	3
0	9175	1018.728950227767	2
0	9178	1018.947188299202	3
0	9181	1019.082509183379	2
0	9183	1019.201214128122	1
0	9185	1020.320549838905	0
0	9188	1022.903716432367	1
0	9189	1023.014684361204	0
0	9192	1023.113988508796	1
0	9194	1023.180605764481	2
0	9195	1023.628538764184	1
0	9198	1023.636339579673	2
0	9199	1023.864248024144	1
0	9202	1024.547967597341	2
0	9203	1025.019698296801	1
0	9205	1025.106162531417	0
0	9236	1027.691686275393	1
0	9264	1029.749682157406	2
0	9276	1030.313765395045	3
0	9290	1031.096950073155	4
0	9292	1031.163994987941	5
0	9297	1032.002193345578	4
0	9299	1033.283555514822	3
0	9302	1033.428343960724	4
0	9304	1033.566555431388	5
0	9322	1035.855004025603	6
0	9337	1037.158944830385	5
0	9340	1037.372493542119	6
0	9342	1037.472180343364	7
0	9343	1037.846542816716	6
0	9345	1037.859901215143	5
0	9347	1037.923996947991	4
0	9349	1038.718723055184	3
0	9351	1039.340183963403	2
0	9354	1039.580943761397	3
0	9356	1039.817972692278	4
0	9381	1042.057496036416	3
0	9384	1042.131301943034	4
0	9385	1042.360507576361	3
0	9388	1043.476671578272	4
0	9405	1045.020418188871	3
0	9416	1046.006236436947	4
0	9421	1047.363697217886	3
0	9424	1047.860798385252	4
0	9425	1048.20474201977	3
0	9428	1048.36506844257	4
0	9434	1048.777823696005	5
0	9440	1050.011443293289	6
0	9441	1050.453607180681	5
0	9445	1050.877758626682	4
0	9447	1050.902846455447	3
0	9450	1050.950918394713	4
0	9452	1051.277678442895	5
0	9453	1051.687804235207	4
0	9455	1051.952165185319	3
0	9458	1052.219424660124	4
0	9462	1052.653413544873	5
0	9465	1052.8714419889	4
0	9468	1052.973462068076	5
0	9469	1052.987633432339	4
0	9472	1052.999456285973	5
0	9474	1053.185263635853	6
0	9475	1053.870645380331	5
0	9477	1054.059380457876	4
0	9479	1054.280933952489	3
0	9481	1054.496456740003	2
0	9483	1054.859057043235	1
0	9485	1054.967243226202	0
0	9530	1059.845153993053	1
0	9538	1060.259864696797	2
0	9546	1061.625828973459	3
0	9559	1065.053304319389	2
0	9562	1065.218166396556	3
0	9564	1065.402699205798	4
0	9565	1065.750726077996	3
0	9569	1065.972538412835	2
0	9572	1066.001200046598	3
0	9573	1066.228638183103	2
0	9576	1066.371243890212	3
0	9577	1066.537461833062	2
0	9579	1066.730099349148	1
0	9582	1066.850062929927	2
0	9583	1066.960891542475	1
0	9589	1067.899492403985	0
0	9598	1068.597664410052	1
0	9601	1069.021272338055	0
0	9610	1070.067576032845	1
0	9630	1070.872108105663	2
0	9633	1071.231984925663	1
0	9635	1071.287765697084	0
0	9638	1071.446066674678	1
0	9640	1071.650218202895	2
0	9646	1072.30041087306	3
0	9653	1073.917756305913	2
0	9656	1074.464506634092	3
0	9657	1074.830394577246	2
0	9659	1075.090515655087	1
0	9663	1075.169670979749	0
0	9702	1082.212661360302	1
0	9710	1083.040237643898	2
0	9732	1084.704201343639	3
0	9737	1085.061064801581	2
0	9740	1085.148350514492	3
0	9741	1085.159988684004	2
0	9746	1085.582565340908	3
0	9747	1085.592778696157	2
0	9749	1086.109961821561	1
0	9752	1086.231679467071	2
0	9755	1086.519850097113	1
0	9757	1086.631596276615	0
0	9762	1088.162934573378	1
0	9764	1088.231293679597	2
0	9765	1088.713758695162	1
0	9768	1089.593383011584	2
0	9770	1089.673613016996	3
0	9771	1089.732622167397	2
0	9773	1089.737326691798	1
0	9775	1090.011649705031	0
0	9782	1090.840000483748	1
0	9784	1091.255799775726	2
0	9789	1091.562696007029	1
0	9791	1091.915421228023	0
0	9794	1091.920226174274	1
0	9795	1091.97784957158	0
0	9802	1092.606049718796	1
0	9803	1092.749380355543	0
0	9806	1092.816283852996	1
0	9807	1093.059300476262	0
0	9810	1093.580214248159	1
0	9811	1094.456530839074	0
0	9814	1094.645669086206	1
0	9817	1095.839340018555	0
0	9820	1095.932647044541	1
0	9821	1096.115175102799	0
0	9824	1096.136374030783	1
0	9829	1097.054056802203	0
0	9832	1097.083881286874	1
0	9835	1097.173471766731	0
0	9838	1097.259536790939	1
0	9840	1097.678482936497	2
0	9842	1098.633723123194	3
0	9861	1100.602560098595	2
0	9864	1101.039346336801	3
0	9866	1101.371295535046	4
0	9870	1101.717033068878	5
0	9871	1101.851579784496	4
0	9873	1101.872402917272	3
0	9875	1102.776072288049	2
0	9878	1103.185796897945	3
0	9880	1103.34605400557	4
0	9881	1103.482679552907	3
0	9883	1103.729784272073	2
0	9886	1103.952829898906	3
0	9888	1104.57850442316	4
0	9894	1104.695708215384	5
0	9897	1104.950603347681	4
0	9899	1105.376791430869	3
0	9903	1105.921611337269	2
0	9908	1106.440546117072	3
0	9909	1106.509252667045	2
0	9911	1106.532605577998	1
0	9913	1106.567050105808	0
0	9970	1111.589451509906	1
0	9971	1111.596548505465	0
0	9980	1112.653037066759	1
0	9981	1112.801942438427	0
0	9984	1113.003321696571	1
0	9986	1113.013751611654	2
0	9987	1113.722198938964	1
0	9990	1113.758143216566	2
0	9992	1114.169058336621	3
0	9993	1114.194887021793	2
0	9996	1114.257340049872	3
0	9998	1114.57972243962	4
0	9999	1114.715196324447	3
0	10002	1115.228627455781	4
0	10003	1115.232521400302	3
0	10005	1115.433743832029	2
0	10009	1116.105384877461	1
0	10011	1116.205110949667	0
0	10028	1119.470755755659	1
0	10033	1120.53769533154	0
0	10036	1120.611223002468	1
0	10037	1120.702030160896	0
0	10040	1120.926220274726	1
0	10041	1121.12257241829	0
0	10072	1122.938841698938	1
0	10083	1124.041162797019	0
0	10098	1126.448507870941	1
0	10103	1127.160089051516	0
0	10116	1128.322530021229	1
0	10125	1129.449447207126	0
0	10128	1129.489788193742	1
0	10129	1129.613893499195	0
0	10132	1129.69852579091	1
0	10154	1131.107090604434	2
0	10162	1131.728761598749	3
0	10180	1133.228802328604	4
0	10187	1133.825201830273	3
0	10190	1133.910103596477	4
0	10191	1134.005069938098	3
0	10193	1134.303795716937	2
0	10196	1134.350722375933	3
0	10199	1135.192511356826	2
0	10203	1136.54044439366	1
0	10208	1137.74137220957	2
0	10209	1138.190883964308	1
0	10213	1138.724986085929	0
0	10216	1139.097715145365	1
0	10218	1139.365121538429	2
0	10220	1139.498176257171	3
0	10223	1139.746941977079	2
0	10226	1139.764030472477	3
0	10230	1141.124571366804	4
0	10231	1141.132407259657	3
0	10233	1141.360798539347	2
0	10235	1141.636743470328	1
0	10237	1142.554863840988	0
0	10270	1144.665337116422	1
0	10273	1145.559285142699	0
0	10276	1145.910348838065	1
0	10285	1146.836536786816	0
0	10288	1147.490861116953	1
0	10289	1147.824941827005	0
0	10294	1148.440325776907	1
0	10324	1150.657984870629	2
0	10340	1152.28360837868	3
0	10356	1153.338254558871	4
0	10370	1154.282838492789	5
0	10381	1156.515700544937	4
0	10383	1157.022692229342	3
0	10386	1157.355842936869	4
0	10387	1157.381965430757	3
0	10390	1157.733382460563	4
0	10394	1158.019113315218	5
0	10395	1158.178112345263	4
0	10398	1158.459497347493	5
0	10399	1158.584199470672	4
0	10401	1158.748749467922	3
0	10404	1158.83043689642	4
0	10405	1159.214916805293	3
0	10407	1159.659823660605	2
0	10411	1159.915102684343	1
0	10413	1160.034787760376	0
0	10512	1170.782741429605	1
0	10526	1172.073859855816	2
0	10529	1172.644432913482	1
0	10532	1172.996972243008	2
0	10535	1173.36891566844	1
0	10537	1173.869864403016	0
0	10554	1176.739091016524	1
0	10561	1177.608383116409	0
0	10564	1177.816979413281	1
0	10566	1178.302653499238	2
0	10590	1179.595154689597	3
0	10607	1182.501939367726	2
0	10609	1182.726380738869	1
0	10611	1182.9671971732	0
0	10616	1183.407907230489	1
0	10617	1183.458204139102	0
0	10660	1187.450086695436	1
0	10662	1187.617149551209	2
0	10667	1187.685003042014	1
0	10671	1187.951049834627	0
0	10674	1188.100181168197	1
0	10677	1188.338124307714	0
0	10700	1191.889081240998	1
0	10718	1193.710541529481	2
0	10747	1195.626003834965	1
0	10750	1195.859379375784	2
0	10752	1195.904669823308	3
0	10753	1196.021056495213	2
0	10756	1196.320489370255	3
0	10766	1196.717428238741	4
0	10771	1197.371106866489	3
0	10773	1197.392818069358	2
0	10776	1197.397007104737	3
0	10779	1198.054784129489	2
0	10782	1198.977114192752	3
0	10784	1199.139681116405	4
0	10785	1199.234239007484	3
0	10787	1199.280454010579	2
0	10790	1199.496835622811	3
0	10791	1199.552092987707	2
0	10793	1199.568415927224	1
0	10796	1199.81615671215	2
0	10798	1199.905409134508	3
0	10817	1202.2538860192	2
0	10820	1202.624433568759	3
0	10825	1203.184935842681	2
0	10828	1203.633921159042	3
0	10834	1204.049016323028	4
0	10836	1204.201097175593	5
0	10841	1204.801325346458	4
0	10843	1204.932572809465	3
0	10846	1205.049111815792	4
0	10873	1207.354644935085	3
0	10876	1207.568171785352	4
0	10877	1207.891520342421	3
0	10879	1208.215227440959	2
0	10881	1208.633978226524	1
0	10886	1210.000437890343	2
0	10888	1210.229670563563	3
0	10890	1210.333393060425	4
0	10891	1210.341164239651	3
0	10895	1210.56929881657	2
0	10899	1211.356409757751	1
0	10902	1211.470851502536	2
0	10903	1211.490050567528	1
0	10908	1211.706332673976	2
0	10909	1211.774848030037	1
0	10915	1213.877005932693	0
0	10930	1215.256617043061	1
0	10931	1215.29114554825	0
0	10934	1215.832614710852	1
0	10935	1215.896329163279	0
0	10946	1216.948458587495	1
0	10949	1217.245050279007	0
0	10958	1218.708479788809	1
0	10959	1219.033315939341	0
0	10974	1220.43457979573	1
0	10976	1220.526849323013	2
0	10982	1220.669585938344	3
0	10985	1221.000662571947	2
0	10987	1221.219882639832	1
0	10990	1221.27022617345	2
0	10995	1222.301503462613	1
0	10997	1222.327948730691	0
0	11000	1223.14348532404	1
0	11005	1223.319162975105	0
0	11008	1223.703716457218	1
0	11021	1225.558465826479	0
0	11024	1225.566385408577	1
0	11026	1226.59986203298	2
0	11028	1226.816080123558	3
0	11033	1227.205811498889	2
0	11036	1227.247086075867	3
0	11043	1229.136205864054	2
0	11047	1229.678921770499	1
0	11049	1230.027166496259	0
0	11052	1230.061742296932	1
0	11078	1232.738383884403	2
0	11093	1234.403279471813	1
0	11096	1234.423561714547	2
0	11098	1234.428678214877	3
0	11099	1234.919324660505	2
0	11101	1235.082311615102	1
0	11103	1235.224240126937	0
0	11106	1235.375719843358	1
0	11123	1237.598514842859	0
0	11140	1240.429247928894	1
0	11141	1240.654770835982	0
0	11160	1243.515659961793	1
0	11162	1243.64051990474	2
0	11169	1243.838717130621	1
0	11171	1243.865588638994	0
0	11210	1247.904820712009	1
0	11218	1248.636095483452	2
0	11224	1249.876013500995	3
0	11260	1252.723347149829	4
0	11267	1254.982918711337	3
0	11270	1255.547328465982	4
0	11271	1255.942973821966	3
0	11273	1255.967822195777	2
0	11275	1256.015121030865	1
0	11278	1256.162848455272	2
0	11280	1257.291161427514	3
0	11281	1257.331645405814	2
0	11284	1257.40454317406	3
0	11285	1257.476716598183	2
0	11288	1257.591218886879	3
0	11289	1257.945911298178	2
0	11292	1258.124331570812	3
0	11314	1260.031735155005	4
0	11322	1261.013686766434	5
0	11326	1261.887408794105	6
0	11327	1261.954581399565	5
0	11329	1262.009114374015	4
0	11332	1262.063417276831	5
0	11345	1263.272553297287	4
0	11347	1263.323635722902	3
0	11350	1263.528261807153	4
0	11351	1263.556860417838	3
0	11354	1263.744629349276	4
0	11355	1264.313776882706	3
0	11358	1264.506570028946	4
0	11372	1265.891647746882	5
0	11377	1266.548332964229	4
0	11379	1267.316844705093	3
0	11381	1267.512940838209	2
0	11384	1267.753308933194	3
0	11387	1267.971307673139	2
0	11391	1268.788017579735	1
0	11393	1269.132817052298	0
0	11396	1269.482837071283	1
0	11398	1269.754157338191	2
0	11399	1269.764507018098	1
0	11401	1269.954638569986	0
0	11410	1270.985561533067	1
0	11425	1271.565197117211	0
0	11428	1271.664323796737	1
0	11448	1273.05808441855	2
0	11453	1273.312067905074	1
0	11456	1274.02937426935	2
0	11463	1274.423561844321	1
0	11467	1275.392996208551	0
0	11512	1280.871787795	1
0	11513	1281.328241228873	0
0	11516	1281.445973060549	1
0	11517	1281.549549318805	0
0	11520	1281.555983931455	1
0	11522	1281.734844937879	2
0	11542	1282.697983404883	3
0	11552	1283.737101647264	4
0	11558	1284.277236677374	5
0	11572	1285.281464421283	6
0	11578	1285.665744230802	7
0	11582	1286.191478662034	8
0	11600	1288.625215559268	9
0	11624	1290.528370119823	10
0	11647	1294.2506120357	9
0	11649	1294.335917318185	8
0	11651	1295.035491532962	7
0	11654	1295.258654690988	8
0	11656	1295.38281432665	9
0	11657	1295.857126730982	8
0	11660	1295.991610641641	9
0	11662	1296.039630398634	10
0	11663	1296.733891882189	9
0	11666	1296.741954611201	10
0	11671	1297.544516943808	9
0	11673	1297.680722932085	8
0	11676	1298.036198718998	9
0	11678	1298.544777942446	10
0	11679	1298.767787329929	9
0	11681	1298.76960597912	8
0	11683	1299.393425347263	7
0	11688	1299.544165784666	8
0	11689	1299.555596214826	7
0	11692	1299.724260163996	8
0	11693	1299.906456568185	7
0	11697	1300.279145742179	6
0	11699	1300.41280986203	5
0	11701	1300.847653590032	4
0	11703	1301.1230527804	3
0	11705	1301.16619638182	2
0	11707	1301.634029217481	1
0	11711	1302.209080114288	0
0	11714	1302.699933641627	1
0	11719	1303.873576159374	0
0	11744	1306.726257587729	1
0	11746	1307.365775513217	2
0	11751	1307.815084261007	1
0	11753	1307.954185857137	0
0	11782	1310.925875579261	1
0	11783	1311.150148091777	0
0	11826	1314.892683247555	1
0	11834	1315.111535912616	2
0	11857	1317.113189514283	1
0	11859	1317.224201904609	0
0	11864	1318.143751001383	1
0	11865	1318.229622612938	0
0	11878	1318.944556753867	1
0	11879	1319.421331885088	0
0	11882	1319.455233726435	1
0	11908	1321.730845102517	2
0	11920	1322.726988541813	3
0	11926	1324.113185199977	4
0	11949	1326.817862553661	3
0	11951	1326.825938139436	2
0	11953	1326.888799803643	1
0	11955	1327.136572848279	0
0	11958	1327.562221552924	1
0	11959	1328.110239907569	0
0	11972	1329.782948529366	1
0	11973	1329.854266538606	0
0	11984	1330.911273561705	1
0	11986	1330.994911591111	2
0	11987	1331.04984295612	1
0	11990	1331.607240903983	2
0	11991	1331.615988353381	1
0	11993	1331.661888070686	0
0	12034	1336.45932229169	1
0	12038	1337.103173941972	2
0	12043	1337.979795000302	1
0	12046	1338.364051985914	2
0	12047	1338.752704812308	1
0	12049	1339.124432978353	0
0	12108	1344.592942704218	1
0	12124	1346.038897165009	2
0	12135	1346.214194844449	1
0	12138	1346.705632196628	2
0	12139	1346.784483863651	1
0	12141	1346.883508316004	0
0	12144	1347.071542995355	1
0	12146	1347.501440043019	2
0	12147	1347.597330386851	1
0	12150	1347.898058183796	2
0	12151	1347.91250306209	1
0	12156	1348.523504282506	2
0	12158	1348.667660687095	3
0	12169	1350.281416252072	2
0	12172	1350.627469905479	3
0	12173	1350.677211256715	2
0	12176	1351.179654119872	3
0	12181	1352.099568701909	2
0	12183	1352.353907446097	1
0	12185	1352.378844603204	0
0	12188	1352.504918164309	1
0	12200	1353.353602059275	2
0	12212	1354.228138295925	3
0	12224	1356.08639233749	4
0	12232	1356.65266975173	5
0	12233	1357.274855225343	4
0	12235	1357.438853852999	3
0	12237	1357.648485597785	2
0	12240	1357.826446309543	3
0	12248	1358.593698241781	4
0	12269	1359.922816342969	3
0	12274	1359.956549830832	4
0	12276	1360.078145846758	5
0	12278	1360.179990874985	6
0	12279	1360.487991095223	5
0	12282	1360.700108475997	6
0	12283	1361.073279398925	5
0	12286	1361.434777177308	6
0	12289	1361.844195285802	5
0	12291	1362.117402111026	4
0	12293	1362.135129716667	3
0	12295	1363.096482733106	2
0	12299	1363.169973977456	1
0	12301	1363.4529535922	0
0	12304	1363.47789711554	1
0	12313	1364.252288065372	0
0	12316	1364.255539709014	1
0	12319	1364.649512326541	0
0	12322	1364.812429621481	1
0	12328	1365.179174319325	2
0	12347	1367.212903887857	1
0	12349	1367.454820004497	0
0	12364	1369.495111788618	1
0	12369	1370.012794743118	0
0	12440	1378.418952122278	1
0	12441	1378.442288249268	0
0	12444	1378.50517693346	1
0	12449	1379.031140702712	0
0	12490	1383.144965667604	1
0	12495	1383.521472873016	0
0	12550	1389.525886071445	1
0	12558	1390.962379833648	2
0	12564	1391.909308833995	3
0	12588	1394.24822656385	4
0	12599	1395.794773827999	3
0	12601	1395.934860042139	2
0	12604	1395.970220730537	3
0	12620	1397.609938764839	4
0	12635	1399.156669655513	3
0	12638	1399.158079599253	4
0	12641	1400.098795844917	3
0	12644	1400.247757786272	4
0	12646	1400.283814681549	5
0	12647	1400.290949714534	4
0	12649	1400.436814654923	3
0	12652	1400.657806965158	4
0	12653	1401.003877073473	3
0	12656	1401.646163530083	4
0	12657	1401.680338792589	3
0	12660	1402.461833839747	4
0	12674	1403.95594941439	5
0	12681	1404.821609690136	4
0	12684	1405.125773316169	5
0	12685	1405.146122766325	4
0	12690	1405.951206631186	5
0	12692	1406.252169340618	6
0	12702	1406.845618307601	7
0	12730	1410.492156208896	8
0	12731	1410.726172784757	7
0	12733	1411.168923630878	6
0	12736	1411.309960895909	7
0	12741	1411.491038187986	6
0	12744	1411.57757025758	7
0	12745	1412.012798598255	6
0	12748	1412.588890250138	7
0	12751	1412.95354993674	6
0	12754	1413.027208177389	7
0	12756	1413.275288113939	8
0	12757	1413.291317781581	7
0	12759	1413.3927837336	6
0	12762	1413.469256813376	7
0	12766	1413.805220606236	8
0	12770	1414.251996034527	9
0	12771	1414.395895372169	8
0	12773	1414.709344799362	7
0	12775	1414.895912857835	6
0	12777	1415.024311482419	5
0	12779	1415.322702554329	4
0	12781	1415.649210636905	3
0	12783	1415.840146595773	2
0	12786	1416.193389811699	3
0	12797	1418.80983890117	2
0	12800	1419.025807643917	3
0	12801	1419.070426010533	2
0	12804	1419.314016596842	3
0	12805	1419.439151370894	2
0	12807	1419.540279318745	1
0	12810	1419.573342950488	2
0	12822	1421.641383390621	3
0	12834	1422.67090588977	4
0	12835	1423.362227144401	3
0	12838	1423.388958339993	4
0	12840	1423.607560882891	5
0	12844	1423.79387000788	6
0	12849	1423.997502927756	5
0	12851	1424.116062316065	4
0	12856	1424.576493040533	5
0	12859	1425.028954521705	4
0	12862	1425.058513510569	5
0	12867	1425.296783391247	4
0	12870	1425.466641186099	5
0	12872	1425.664215643243	6
0	12874	1425.685922050818	7
0	12880	1426.206811343509	8
0	12884	1426.47538648068	9
0	12885	1426.559024210369	8
0	12887	1427.409660984122	7
0	12890	1427.665226467517	8
0	12893	1427.89085254062	7
0	12895	1428.101363821521	6
0	12897	1428.240382865288	5
0	12899	1428.291514323157	4
0	12902	1428.771020987435	5
0	12903	1428.881369882237	4
0	12906	1428.919269484048	5
0	12915	1429.958402274749	4
0	12919	1430.061410446121	3
0	12922	1430.112909216651	4
0	12938	1431.448100065026	5
0	12957	1433.41207521045	4
0	12959	1433.423578498277	3
0	12962	1433.725948472866	4
0	12963	1434.286972432377	3
0	12967	1434.526990907096	2
0	12969	1434.851266187249	1
0	12971	1435.418582184975	0
0	12974	1435.6155365042	1
0	12975	1435.894923776281	0
0	12980	1436.447981872852	1
0	12981	1436.461983112376	0
0	12984	1436.518574865764	1
0	12986	1436.696327125773	2
0	12987	1436.722653889015	1
0	12989	1436.75720148619	0
0	12992	1436.811541176926	1
0	12994	1437.053500958391	2
0	13002	1437.890548356835	3
0	13027	1440.073889331478	2
0	13030	1440.187669761967	3
0	13033	1440.331170684148	2
0	13035	1440.555934755958	1
0	13038	1440.556394217313	2
0	13039	1440.923844389344	1
0	13041	1441.186482034205	0
0	13086	1445.700132139724	1
0	13090	1446.195195146284	2
0	13091	1446.475797833997	1
0	13093	1446.600684187971	0
0	13096	1446.701649227793	1
0	13098	1446.767711337051	2
0	13107	1448.166500747097	1
0	13109	1448.602790749276	0
0	13112	1448.669049583486	1
0	13137	1450.825756541188	0
0	13140	1450.972841240044	1
0	13146	1451.200695723766	2
0	13147	1451.233175317392	1
0	13150	1451.245112765881	2
0	13159	1452.381164649719	1
0	13162	1452.466779274619	2
0	13165	1452.677689212639	1
0	13167	1452.865011707079	0
0	13170	1452.993896218919	1
0	13174	1453.093205433792	2
0	13175	1453.108960798447	1
0	13179	1453.45922626841	0
0	13182	1453.511166316616	1
0	13187	1453.947984824669	0
0	13192	1454.108177042677	1
0	13199	1455.137952015413	0
0	13216	1457.022043410365	1
0	13217	1457.349058006218	0
0	13260	1463.452106677422	1
0	13263	1463.891705429545	0
0	13296	1466.698604525457	1
0	13321	1468.312059021634	0
0	13324	1468.442043147015	1
0	13345	1470.120553521674	0
0	13380	1472.361402360618	1
0	13389	1474.191057356607	0
0	13482	1482.801003168272	1
0	13493	1483.657328970026	0
0	13530	1487.982405726212	1
0	13537	1488.929052307019	0
0	13540	1489.918721405225	1
0	13541	1489.963572741354	0
0	13558	1491.717154892548	1
0	13564	1492.379625670034	2
0	13567	1492.51966568369	1
0	13570	1492.90405304897	2
0	13571	1493.060084512844	1
0	13574	1493.573717128432	2
0	13575	1493.662498493377	1
0	13578	1494.506117371432	2
0	13596	1497.051069111784	3
0	13604	1497.675465423583	4
0	13606	1497.695371021091	5
0	13616	1498.373064482597	6
0	13622	1498.651288759385	7
0	13627	1498.809289743972	6
0	13630	1498.970691424839	7
0	13644	1499.941695036767	8
0	13656	1501.524162876174	9
0	13668	1502.665055054882	10
0	13674	1502.8186228176	11
0	13676	1503.100590710554	12
0	13679	1503.239069171489	11
0	13682	1503.421179559903	12
0	13692	1504.370089564015	13
0	13694	1504.374985081844	14
0	13695	1505.426928139933	13
0	13698	1505.660196364863	14
0	13699	1505.721778597388	13
0	13701	1505.995289659419	12
0	13704	1506.049624553543	13
0	13706	1506.168918466629	14
0	13710	1506.687697815026	15
0	13715	1507.104378507948	14
0	13717	1507.140614613105	13
0	13719	1507.256457879764	12
0	13721	1507.518187839785	11
0	13723	1507.617509791302	10
0	13726	1507.922278853496	11
0	13727	1507.998571600352	10
0	13730	1508.393151117796	11
0	13732	1508.57883694741	12
0	13733	1508.717439766562	11
0	13736	1508.979031058322	12
0	13737	1509.2891435608	11
0	13740	1509.341592142861	12
0	13764	1511.171061335281	13
0	13766	1511.244645302709	14
0	13781	1514.05438384039	13
0	13783	1514.270498165896	12
0	13785	1514.576520417108	11
0	13788	1514.590883340997	12
0	13789	1514.738791257831	11
0	13794	1515.052146457546	12
0	13795	1515.335918050704	11
0	13797	1515.591671350915	10
0	13800	1516.012462490303	11
0	13801	1516.013037384512	10
0	13803	1516.129142820798	9
0	13806	1516.212749192217	10
0	13807	1516.314031607012	9
0	13810	1516.68060005773	10
0	13811	1516.834084843003	9
0	13813	1516.888184523121	8
0	13816	1516.93634990906	9
0	13820	1517.017263826005	10
0	13832	1518.876150745337	11
0	13848	1520.056658386223	12
0	13855	1520.446876472792	11
0	13858	1521.112766655578	12
0	13859	1521.142256354398	11
0	13862	1521.163064651262	12
0	13863	1521.32933869845	11
0	13868	1521.921046525488	12
0	13869	1522.056162187958	11
0	13871	1522.151458446174	10
0	13873	1522.334181691423	9
0	13878	1522.5517045163	10
0	13880	1522.686611678526	11
0	13888	1523.105672905573	12
0	13918	1525.225608842776	13
0	13946	1527.919343016937	14
0	13950	1529.265085813215	15
0	13951	1529.670726373364	14
0	13954	1529.898529515245	15
0	13958	1530.535329274432	16
0	13974	1531.949144039225	17
0	13977	1532.568262944126	16
0	13979	1532.926273237034	15
0	13982	1533.092329736865	16
0	13992	1533.64259985667	17
0	13993	1533.891968347344	16
0	13996	1534.089732355836	17
0	13997	1534.139310755192	16
0	13999	1534.511970235165	15
0	14002	1534.71516083562	16
0	14003	1534.751454484747	15
0	14006	1534.800249386469	16
0	14010	1535.307001779159	17
0	14013	1535.9848171849	16
0	14015	1536.185278327386	15
0	14019	1536.709411891315	14
0	14021	1536.945123971145	13
0	14023	1537.275759131328	12
0	14025	1537.436923574978	11
0	14028	1537.575655056025	12
0	14029	1537.672174990446	11
0	14031	1537.816174134172	10
0	14034	1537.975084744043	11
0	14035	1537.983958113592	10
0	14038	1538.30233175419	11
0	14039	1538.476941635775	10
0	14042	1538.486002748893	11
0	14043	1538.589734865604	10
0	14045	1538.70035381181	9
0	14048	1538.820683282158	10
0	14052	1540.156356113037	11
0	14053	1540.867562133453	10
0	14055	1541.075608395267	9
0	14057	1541.512280637101	8
0	14059	1541.716367589455	7
0	14064	1541.878014960014	8
0	14069	1542.278058865106	7
0	14071	1542.513504570793	6
0	14076	1543.088248357585	7
0	14077	1543.315511309642	6
0	14080	1543.339110218516	7
0	14085	1543.482203441393	6
0	14088	1543.743226308941	7
0	14089	1544.249592265763	6
0	14091	1544.582129190301	5
0	14094	1544.860418106588	6
0	14095	1544.944926166734	5
0	14098	1545.134424285851	6
0	14099	1545.135855208679	5
0	14102	1545.383415044707	6
0	14104	1545.439225566911	7
0	14105	1545.746547910157	6
0	14108	1545.815780478397	7
0	14109	1545.977856596025	6
0	14112	1546.091564151742	7
0	14113	1546.750936288082	6
0	14115	1546.824069340763	5
0	14117	1546.908803984574	4
0	14120	1547.160924651249	5
0	14126	1547.418004572437	6
0	14127	1547.821764968025	5
0	14129	1548.031741357779	4
0	14132	1549.130879819736	5
0	14133	1549.463165598282	4
0	14135	1549.823885915703	3
0	14137	1549.907643058534	2
0	14139	1549.971084300801	1
0	14141	1549.982339680282	0
0	14144	1550.084509141857	1
0	14146	1550.147416267859	2
0	14147	1550.289099543076	1
0	14149	1550.544188975637	0
0	14168	1551.680425500331	1
0	14169	1551.694643250744	0
0	14172	1552.110020480527	1
0	14173	1552.258476101523	0
0	14180	1552.650564833159	1
0	14185	1553.6341726203	0
0	14204	1556.509154026133	1
0	14205	1556.618588215581	0
0	14212	1557.48927217624	1
0	14214	1558.033606036603	2
0	14215	1558.090431218995	1
0	14218	1558.43792299294	2
0	14219	1559.636444918321	1
0	14222	1559.666761581309	2
0	14223	1560.148347748275	1
0	14225	1560.194117055001	0
0	14362	1574.230341021222	1
0	14367	1574.452777138154	0
0	14390	1577.180409970652	1
0	14393	1577.806628398102	0
0	14438	1582.565723551032	1
0	14441	1582.836239393281	0
0	14446	1583.330956391351	1
0	14447	1583.455701595441	0
0	14492	1589.138695570096	1
0	14493	1589.504949876687	0
0	14512	1591.428905878194	1
0	14536	1593.685163182705	2
0	14541	1594.273125408306	1
0	14543	1594.458270887309	0
0	14546	1594.507230451436	1
0	14548	1594.609146708124	2
0	14550	1594.814833792292	3
0	14551	1594.873456463983	2
0	14554	1595.187147303706	3
0	14555	1595.730654611659	2
0	14558	1595.85419652168	3
0	14559	1595.888779322655	2
0	14561	1596.09906857256	1
0	14564	1596.328743429309	2
0	14565	1596.559935418762	1
0	14568	1596.748558417076	2
0	14569	1596.770398012359	1
0	14572	1596.864271030168	2
0	14573	1596.91979377805	1
0	14575	1597.191047279208	0
0	14592	1598.11791196198	1
0	14593	1598.326065434147	0
0	14600	1599.534563953767	1
0	14603	1600.035176989131	0
0	14624	1601.819856344214	1
0	14639	1603.106408661308	0
0	14644	1603.971525253254	1
0	14656	1604.761363316634	2
0	14661	1605.079335125274	1
0	14663	1605.236853301238	0
0	14688	1608.297528517448	1
0	14689	1608.572829128674	0
0	14700	1609.317642801145	1
0	14701	1609.592654903596	0
0	14704	1609.679702417556	1
0	14705	1609.954242329063	0
0	14738	1611.498395268011	1
0	14765	1614.98575200958	0
0	14828	1620.880220304852	1
0	14860	1625.357333144519	2
0	14862	1625.460155493875	3
0	14878	1626.699988384619	4
0	14886	1627.241024153014	5
0	14896	1629.121927118492	6
0	14901	1630.265411036222	5
0	14904	1630.37333980561	6
0	14909	1630.922584205903	5
0	14911	1630.980167395783	4
0	14915	1631.770613105217	3
0	14918	1632.547951343654	4
0	14919	1632.917577648219	3
0	14923	1633.076731547929	2
0	14925	1633.187815039811	1
0	14927	1633.34054900903	0
0	14934	1634.753078525465	1
0	14962	1636.644321356362	2
0	14982	1638.363212700278	3
0	14984	1638.456435932114	4
0	14985	1638.648641958958	3
0	14988	1638.818437089024	4
0	14995	1639.496303185301	3
0	15000	1639.6315108497	4
0	15002	1639.734086170031	5
0	15003	1639.990106649613	4
0	15006	1640.000562417561	5
0	15007	1640.100908789298	4
0	15010	1640.20551980358	5
0	15011	1640.48809294735	4
0	15014	1640.570719319466	5
0	15015	1640.732551760216	4
0	15018	1641.133108062013	5
0	15019	1641.376678775916	4
0	15022	1641.772491066576	5
0	15024	1642.062456862559	6
0	15045	1643.980704295612	5
0	15048	1644.133572675285	6
0	15052	1645.370878616159	7
0	15054	1645.441326133657	8
0	15055	1645.51374059355	7
0	15058	1646.401528446298	8
0	15060	1646.878544508843	9
0	15061	1646.898380764033	8
0	15064	1646.930427265331	9
0	15065	1647.015358112729	8
0	15070	1648.159369955644	9
0	15071	1648.35183470084	8
0	15073	1648.589184303997	7
0	15075	1648.662622054982	6
0	15080	1649.477289789837	7
0	15084	1650.886933997057	8
0	15091	1651.82022037153	7
0	15094	1651.945696726011	8
0	15095	1651.982645283068	7
0	15098	1652.033543051347	8
0	15099	1652.117895063965	7
0	15102	1652.327097186284	8
0	15107	1652.529232422929	7
0	15109	1652.76233701133	6
0	15111	1652.929060434279	5
0	15113	1653.032566970406	4
0	15116	1653.102068582793	5
0	15117	1653.425499334988	4
0	15121	1653.592512401807	3
0	15124	1653.609925064726	4
0	15129	1653.959997430043	3
0	15132	1654.198280278046	4
0	15178	1657.568006611382	5
0	15199	1660.266384396914	4
0	15202	1660.409254156575	5
0	15206	1660.563713190378	6
0	15223	1662.200812530738	5
0	15226	1662.254030461169	6
0	15234	1662.753776704373	7
0	15247	1664.1004441525	6
0	15249	1664.445551052043	5
0	15252	1664.632488090425	6
0	15253	1665.226420787243	5
0	15255	1665.259119339926	4
0	15258	1665.304831278358	5
0	15263	1665.911571275986	4
0	15265	1666.284170761446	3
0	15267	1666.377229053732	2
0	15272	1667.342848794105	3
0	15273	1667.398235706945	2
0	15276	1667.402229192837	3
0	15278	1667.504841808566	4
0	15279	1667.532237662596	3
0	15281	1668.153311086175	2
0	15284	1668.169603945839	3
0	15285	1668.345243194227	2
0	15287	1668.792765676225	1
0	15290	1669.018457481436	2
0	15296	1669.873192893312	3
0	15306	1670.643758416917	4
0	15308	1671.106240983834	5
0	15332	1672.868423617227	6
0	15356	1674.724538538624	7
0	15368	1675.716514351631	8
0	15372	1676.214951213455	9
0	15418	1681.042783655743	10
0	15422	1681.838075551158	11
0	15442	1683.655777413631	12
0	15498	1688.269453735977	13
0	15507	1689.405441327184	12
0	15510	1689.596699129218	13
0	15511	1689.601709264602	12
0	15513	1690.207385358755	11
0	15515	1690.417750191534	10
0	15517	1690.598213537623	9
0	15519	1690.944195907791	8
0	15521	1690.945447538768	7
0	15523	1691.329865931824	6
0	15526	1691.550005022352	7
0	15527	1691.635816616151	6
0	15529	1692.046931405188	5
0	15531	1692.282717443918	4
0	15534	1692.629384585422	5
0	15536	1692.796377756799	6
0	15537	1692.845970791741	5
0	15540	1692.859493537994	6
0	15542	1692.888657160758	7
0	15549	1693.863369138793	6
0	15552	1694.052003617232	7
0	15567	1695.283119998462	6
0	15570	1695.544154250626	7
0	15571	1695.748163433822	6
0	15573	1695.789224346854	5
0	15576	1695.857092343431	6
0	15577	1696.157775476839	5
0	15580	1696.285790559436	6
0	15583	1696.886951794295	5
0	15585	1697.089450413147	4
0	15587	1697.185492525614	3
0	15590	1697.360629336773	4
0	15615	1699.571163053454	3
0	15617	1699.83525873518	2
0	15619	1699.884213154199	1
0	15624	1700.407621092153	2
0	15626	1700.415493190062	3
0	15627	1700.568832832987	2
0	15630	1700.757495132925	3
0	15639	1701.26272063712	2
0	15641	1701.484138544451	1
0	15643	1701.619635899765	0
0	15648	1702.435250444686	1
0	15649	1702.466238824545	0
0	15652	1702.533510898731	1
0	15664	1703.341028566362	2
0	15693	1705.724887684144	1
0	15696	1705.999036106064	2
0	15698	1706.355320933249	3
0	15703	1706.924442067442	2
0	15706	1706.980829674056	3
0	15707	1707.166722477068	2
0	15710	1707.168555494802	3
0	15713	1707.494290647493	2
0	15716	1707.63623510231	3
0	15718	1707.765237364798	4
0	15719	1708.42006453285	3
0	15722	1708.422966242697	4
0	15723	1708.589273606652	3
0	15725	1708.597052775233	2
0	15727	1708.615064763765	1
0	15729	1708.685279498734	0
0	15778	1715.923117664465	1
0	15779	1715.963743230984	0
0	15840	1723.065505484772	1
0	15842	1723.156976611047	2
0	15851	1724.312611561654	1
0	15854	1724.451081144101	2
0	15855	1724.545407073967	1
0	15858	1724.95958228769	2
0	15860	1725.121016521844	3
0	15862	1725.193086946219	4
0	15863	1726.010847341069	3
0	15865	1726.219818023008	2
0	15867	1726.242201914479	1
0	15869	1726.507573401717	0
0	15886	1728.181732757239	1
0	15887	1728.44745828188	0
0	15900	1729.364662909969	1
0	15902	1729.370604894623	2
0	15903	1729.419976058193	1
0	15907	1730.001567095593	0
0	15926	1731.808168394018	1
0	15933	1731.976645049927	0
0	15974	1736.954261237415	1
0	15975	1737.043510141022	0
0	15978	1737.09685576492	1
0	15982	1737.672881287973	2
0	15985	1738.453141858994	1
0	15988	1738.547567021618	2
0	15990	1738.64512165436	3
0	15992	1738.848238087765	4
0	16005	1740.090684267656	3
0	16008	1740.23282476383	4
0	16010	1740.458875302955	5
0	16011	1740.834747385253	4
0	16013	1741.06658999713	3
0	16015	1741.124241423541	2
0	16018	1741.962766118226	3
0	16020	1742.121343526978	4
0	16028	1742.467405135467	5
0	16030	1742.578220430443	6
0	16040	1743.331754342515	7
0	16041	1743.403451819979	6
0	16044	1743.671837184582	7
0	16048	1744.321704941306	8
0	16050	1744.743642933686	9
0	16065	1745.564722588584	8
0	16067	1745.623372729553	7
0	16070	1745.98366189304	8
0	16075	1746.322850635512	7
0	16077	1746.359092091084	6
0	16080	1746.409525299615	7
0	16082	1746.51198618831	8
0	16100	1748.357174178901	9
0	16105	1748.803080077111	8
0	16107	1748.821261619474	7
0	16110	1749.006869742599	8
0	16111	1749.054578663026	7
0	16113	1749.916332963901	6
0	16116	1750.338684311802	7
0	16118	1750.545906205926	8
0	16119	1750.679676306134	7
0	16121	1750.80331709615	6
0	16124	1750.915995168928	7
0	16131	1751.063992000057	6
0	16134	1751.230336687891	7
0	16146	1751.843488955949	8
0	16158	1752.901418450095	9
0	16165	1753.621647214539	8
0	16167	1753.900212406724	7
0	16170	1754.187882576272	8
0	16171	1754.217324001402	7
0	16174	1754.454915056809	8
0	16175	1754.539888532319	7
0	16178	1754.650644732789	8
0	16179	1754.852447719046	7
0	16183	1755.743344951402	6
0	16185	1755.974313174261	5
0	16187	1756.520908913662	4
0	16190	1757.578669248977	5
0	16192	1757.673589926115	6
0	16193	1757.808724093072	5
0	16196	1758.050600427769	6
0	16198	1758.459311530694	7
0	16205	1759.937494934068	6
0	16207	1760.063641675754	5
0	16209	1760.169447199983	4
0	16211	1760.309598867806	3
0	16213	1760.928486999244	2
0	16219	1761.094305263946	1
0	16222	1761.778657244358	2
0	16225	1762.25795785635	1
0	16227	1762.323998411084	0
0	16230	1762.653699164136	1
0	16231	1763.287754406444	0
0	16234	1763.441217124826	1
0	16238	1763.598454016654	2
0	16245	1763.947746048445	1
0	16249	1764.899563058337	0
0	16274	1768.354504149049	1
0	16275	1768.627667571098	0
0	16346	1782.562998100031	1
0	16347	1782.792172780626	0
0	16350	1782.795896404617	1
0	16354	1782.963200024731	2
0	16363	1784.179607907547	1
0	16366	1784.403070405594	2
0	16374	1785.903578988952	3
0	16400	1787.704227564559	4
0	16402	1787.72549621149	5
0	16410	1789.613844755906	6
0	16417	1790.219121627869	5
0	16422	1790.875638201201	6
0	16423	1791.048443073119	5
0	16427	1791.370253107154	4
0	16430	1791.452775865179	5
0	16432	1792.048915335524	6
0	16434	1792.271648620144	7
0	16448	1793.876443357055	8
0	16450	1794.002531872137	9
0	16452	1794.358022604573	10
0	16457	1794.68337272125	9
0	16461	1795.157782233861	8
0	16464	1795.369985558878	9
0	16471	1795.542415220033	8
0	16473	1796.124910745941	7
0	16475	1796.252063238742	6
0	16480	1796.914269432176	7
0	16481	1797.006790196605	6
0	16483	1797.019694372509	5
0	16486	1797.324011090425	6
0	16490	1797.821835708346	7
0	16501	1801.07994973519	6
0	16503	1801.081145301208	5
0	16507	1801.254611211832	4
0	16509	1801.711294760097	3
0	16512	1802.024726475326	4
0	16514	1802.044741804154	5
0	16515	1802.380508192267	4
0	16517	1802.639793869166	3
0	16520	1802.72852379734	4
0	16521	1802.821016371241	3
0	16524	1803.123088816612	4
0	16533	1803.612276018793	3
0	16536	1804.31804968006	4
0	16537	1804.649869010235	3
0	16540	1804.81263478033	4
0	16541	1804.874657313989	3
0	16544	1804.995251048491	4
0	16549	1805.500260913368	3
0	16552	1805.525625068801	4
0	16553	1805.577847795478	3
0	16555	1805.59585414889	2
0	16557	1805.767384217399	1
0	16559	1805.913181126908	0
0	16588	1809.020190629576	1
0	16591	1809.31621311454	0
0	16594	1809.698767651224	1
0	16596	1810.950333894328	2
0	16597	1811.383201144164	1
0	16600	1811.423956606999	2
0	16603	1811.60444157526	1
0	16605	1811.983906316008	0
0	16608	1812.483159533895	1
0	16609	1812.930881168705	0
0	16612	1813.050391588548	1
0	16617	1813.450185947816	0
0	16624	1814.412173958471	1
0	16631	1816.885297912342	0
[...]
16	6171	692.874179575996	367.97932359948
16	6193	695.645850488668	363.65680836173
16	6195	695.954168353136	363.1154101379
16	6275	705.844129952002	369.39733957614
16	6299	707.422088143849	367.27071548807
16	6307	708.947027577044	362.30683327736
16	6325	711.563802419497	357.16559640845
16	6597	741.29499324475	365.27800528568
16	6631	745.220525295801	367.11003442611
16	6637	746.387908031175	362.38117416879
16	6769	758.847318818344	366.79874454654
16	8909	989.359609186555	588.17660218108
16	8925	990.961197858861	848.73826545352
16	8933	992.887398302364	849.15277559242
16	8939	994.261938560253	849.89771055075
16	9011	1001.579760374983	907.53166458598
16	9041	1004.383778073909	968.27278152344
16	9043	1004.959452142578	587.5909366106
16	9059	1008.609000646258	953.62869221657
16	9061	1008.713541293019	585.71642343471
16	9063	1008.766751495184	585.03926593123
16	9065	1008.843434702248	583.32311358608
16	9067	1008.960596799405	582.89766220713
16	9071	1009.230164369795	948.69355462403
16	9209	1025.261201161765	919.18426922842
16	9211	1025.583250500414	964.54424969082
16	9217	1026.857716117066	1018.9071421845
16	9231	1027.378734365433	862.28554924869
16	9605	1069.889452392275	635.09702002074
16	9697	1081.22588816195	892.64090293787
16	9925	1108.092102579449	662.90284196914
16	9963	1111.317720335024	660.21720682076
16	9965	1111.335403765153	659.804327077
16	9975	1111.792268771401	657.95316521216
16	10045	1121.771173096963	926.99668551434
16	10107	1127.393476119576	652.98231848408
16	10109	1127.456182880317	649.34989772454
16	10111	1127.847062191823	648.91689675031
16	10417	1160.365111508857	678.3286719126
16	10419	1160.642208227233	1052.5332672875
16	10427	1161.234828208511	674.33404485838
16	10431	1161.505247331111	953.6422964771
16	10433	1161.657909609197	952.86466920817
16	10435	1162.650313681609	951.38380333271
16	10437	1162.774846201911	950.71895804085
16	10439	1162.819128247815	670.29266960965
16	10453	1164.434107747238	670.24402196081
16	10455	1164.863210527566	669.86896373364
16	10463	1166.157370557896	668.25011518866
16	10465	1166.282762897639	667.50093624945
16	10467	1166.751975939346	667.76705645462
16	10489	1169.555046960561	668.3025828775
16	10491	1169.629520177851	953.93138253437
16	10543	1174.725076316131	668.16632055274
16	10545	1174.976039158603	957.0341424629
16	10547	1175.164811262482	949.89929890906
16	10549	1175.840036144336	945.97602383789
16	10623	1183.97960789397	949.52392078465
16	10637	1185.114715538335	674.28256737087
16	10639	1185.217078412758	674.34644336979
16	10653	1186.769427205909	950.5396419444
16	10655	1187.384189416259	950.81972503789
16	10695	1191.520996943305	947.27619494411
16	10919	1214.076293401437	695.49607647281
16	10921	1214.535749586261	694.40700913437
16	10941	1216.354815460062	692.8890902942
16	10967	1220.151614244787	686.7900007772
16	11127	1238.39343753252	700.87373868541
16	11129	1238.666147938182	698.82737006505
16	11131	1238.716967328265	697.88485875017
16	11151	1242.02754372589	985.7670517103
16	11175	1245.525679215547	696.69829467718
16	11177	1245.768763663336	696.80758367345
16	11405	1270.24672935653	716.82130835476
16	11471	1275.775723790479	1015.7991054924
16	11473	1275.911957773209	1008.8055935796
16	11475	1276.209807598429	1000.1951312687
16	11477	1276.485572311691	717.31613496199
16	11487	1278.386291542639	1000.5350914321
16	11497	1279.536317854986	716.61865413461
16	11499	1279.95517353771	715.76535182393
16	11729	1304.310429426438	729.72267256412
16	11731	1304.499377807397	727.22935501609
16	11775	1310.360465343492	727.75447329264
16	11777	1310.449872000065	726.80120743629
16	11787	1311.450371866708	722.60769583494
16	11801	1312.644583020636	718.15643558581
16	11967	1329.05894104904	729.45746485097
16	11977	1330.606511864821	727.90019823764
16	12011	1333.465755832165	727.20890829308
16	12013	1333.753410573525	726.24556597572
16	12053	1340.640886177194	1218.0910710676
16	12061	1341.226482867913	1260.6559959828
16	12071	1342.3106682394	713.27673452628
16	12077	1342.589347678796	713.32434378046
16	12081	1342.795555713624	712.30110072528
16	12095	1343.863321374927	706.92392242414
16	12373	1370.626494267685	728.76387957063
16	12383	1373.357939782935	1071.4139640459
16	12385	1374.139336766649	727.51182019999
16	12387	1374.262315325262	1247.8739529808
16	12391	1374.912589331319	724.69956972087
16	12421	1377.084145790211	720.09287751016
16	12423	1377.359822991864	719.78502471087
16	12425	1377.74878748762	719.24749921104
16	12461	1381.274478192508	704.84826590178
16	12463	1381.316345049136	1249.8183339128
16	12485	1382.626520538968	699.60359749023
16	12515	1385.919201264192	1070.1858914727
16	12527	1387.665655330448	696.28932598224
16	13053	1442.759204333608	1115.1474294886
16	13063	1443.862418802619	1113.5363376396
16	13071	1444.566974553388	747.86332276795
16	13221	1457.908058915136	753.66624805249
16	13223	1458.042647382133	1118.3354060583
16	13229	1458.3473150071	750.89780268187
16	13245	1460.21736200422	749.44327264684
16	13247	1460.441860878521	748.90638964996
16	13249	1460.971579335503	1105.9981003205
16	13279	1466.095521928554	1103.8383104699
16	13351	1470.726084904637	1336.4231990122
16	13353	1470.829559548403	740.79942941064
16	13355	1470.907896094866	738.51508572701
16	13361	1471.589673216209	736.68123098256
16	13409	1476.783054520188	735.38137501578
16	13463	1481.753902306345	1105.2354036487
16	13465	1482.24712215928	1102.420681693
16	13469	1482.38238429607	735.86818615868
16	13471	1482.468422113175	1096.5318328172
16	13473	1482.508113606366	734.98933618515
16	13499	1484.569816395888	733.64889249565
16	13501	1485.014981641314	733.4345375398
16	13503	1485.208988152218	730.48784349317
16	13507	1485.435949224726	728.2024732214
16	13509	1485.441128027222	1088.4265561241
16	13511	1485.566807166953	724.82351683275
16	13513	1485.771974688927	723.13919497364
16	13515	1485.976402807309	722.28306487109
16	13517	1486.569241563154	719.82835789723
16	14161	1551.463242165657	773.64239600802
16	14163	1551.569748705212	772.60497151114
16	14191	1554.282659375604	767.22785810319
16	14193	1554.529395027233	767.27686441886
16	14195	1554.649734121835	767.06749842918
16	14231	1561.807872850026	759.60938971379
16	14233	1562.391136487198	759.80949699842
16	14235	1562.43271408004	759.12197435451
16	14237	1562.611671461409	757.40251462261
16	14245	1563.442244703951	755.3687200053
16	14247	1563.920729880353	755.83895548298
16	14249	1564.456955298441	755.778166502
16	14251	1564.634501137811	753.20675188678
16	14253	1564.682262345263	751.85158350635
16	14255	1565.282810207129	750.26435578063
16	14371	1574.552083262034	755.29822752332
16	14373	1574.816456371412	753.42029105837
16	14375	1575.301495781921	753.31477702105
16	14403	1578.521808245414	743.17338026408
16	14405	1578.602838555561	740.03436953157
16	14407	1578.700486937344	739.41694218576
16	14409	1578.858655756327	735.41399493295
16	14415	1579.633931105598	734.04253517998
16	14451	1584.731378358395	731.84984825991
16	14457	1585.605135765507	730.76250250836
16	14459	1585.613399931605	730.2395708621
16	14473	1587.372284199252	727.85100330483
16	14475	1587.450325215954	726.13946840736
16	14497	1590.79865858425	727.98676005276
16	14579	1597.23343211976	729.14212266129
16	14585	1597.325592042362	727.13768036134
16	14607	1600.566738107626	728.108009452
16	14609	1600.770330415521	726.60115859165
16	14667	1605.950762010756	724.62174084163
16	14669	1606.159073618992	722.83597956335
16	14681	1607.263321157493	715.31951591049
16	14693	1609.121716085482	715.37940093866
16	14695	1609.132797787204	714.60977652591
16	14709	1610.304614320803	713.8824925464
16	14711	1610.423270327638	713.35160969981
16	14713	1610.522946630252	713.07043651708
16	14769	1615.143872313709	714.16898930126
16	14779	1616.800360120232	714.26739134454
16	14781	1617.076570427628	710.88906061697
16	15733	1709.362160527216	790.96621989631
16	15761	1714.727147430867	795.5489838587
16	15767	1715.263132723418	793.68954869822
16	15769	1715.280168291465	789.34291387313
16	15789	1717.741664100152	786.35755222415
16	15799	1719.710042512142	784.78286185427
16	15801	1719.80764415638	783.8716275623
16	15803	1719.844352908645	783.17411003059
16	15829	1721.580978532746	766.96257278911
16	15831	1722.170628785237	765.09054678748
16	15891	1728.599227144728	759.6959902101
16	15893	1728.703703937087	756.3787340658
16	15895	1728.941228732265	755.09583324947
16	15921	1731.560424439453	752.95887033918
16	15937	1732.147925995661	749.39047093837
16	15939	1732.2083684144	1333.9372360428
16	15941	1732.248919081472	745.09026091245
16	15953	1734.092853659291	1334.9301574776
16	15955	1734.133424695791	746.27615051535
16	15957	1734.214539508257	746.03898556154
16	16255	1765.413760782944	1358.8557592804
16	16265	1767.595349037925	1679.312112666
16	16267	1767.730560346279	1359.1363038507
16	16269	1767.919105140783	1625.4446423588
16	16283	1770.290081998286	1359.4160552841
16	16287	1771.284765419495	1744.3893877947
16	16289	1771.353064124705	1624.8374992792
16	16291	1772.329300741163	776.52307353421
16	16293	1772.900294234778	775.85615038387
16	16295	1773.220958629642	775.1645773101
16	16311	1775.489984455033	1362.4855872439
16	16313	1775.808177227103	773.73214290721
16	16315	1776.014762919522	772.86799326629
16	16317	1776.722711396261	773.49576546871
16	16319	1776.977190764795	1730.784005396
16	16327	1778.89712231513	1624.0005878065
16	16329	1778.960109088963	1623.327895253
16	16331	1779.016953574845	769.95079676152
16	16333	1779.395832698944	1352.5024390265
16	16335	1780.39181308404	768.0153267219
16	16337	1781.744908399805	769.18311249038
16	16635	1817.326055737909	1386.6229237378
16	16637	1817.444609095601	790.25726621749
16	16649	1818.195017987082	788.91821637202
16	16651	1818.369004745578	788.99061021765
16	16677	1820.748834682546	785.96187930894
16	16679	1820.798580887687	785.2274466875
16	16681	1820.984144555343	784.82056541121
16	17103	1871.578640893973	826.5019474804
16	17321	1893.541105209671	838.3792448478
16	17397	1902.660858121369	846.73010301683
16	17401	1903.052989811779	1725.7931275547
16	17403	1903.453424098	846.72821324843
16	17493	1914.2355031423	853.7296453401
16	17505	1916.180660435653	851.680893317
16	17511	1916.726565884635	849.08602065748
16	17513	1917.645340378107	849.80032267966
16	17515	1917.661626452214	1736.2805858007
16	17561	1921.583929324991	851.48032212536
16	17577	1923.492417103869	851.12355031382
16	17587	1924.138347849567	1486.6624859223
16	17589	1924.904958004603	1487.0583731061
16	17603	1927.089051165754	1739.2063454909
16	17605	1927.956412770816	1738.103083458
16	17655	1934.489326709491	839.41179135978
16	17711	1939.731074967862	840.67703397291
16	17713	1939.862306958001	838.20731680195
16	18107	1983.5578768377	1526.0728311754
16	18109	1983.742960565272	865.51362423904
16	18111	1984.673723322796	1876.7233446616
16	18113	1985.771590235547	1525.7154772119
16	18119	1987.558860961323	1527.088543256
16	18249	1999.423136310235	1531.5425070777
16	18349	2010.30072388796	877.42624630718
16	18817	2056.177523808286	917.90323835998
16	18853	2061.214744380388	1862.9093481532
16	18855	2061.902830960961	918.92156354561
16	18867	2063.022545762949	916.91115509299
16	19809	2166.540353214461	1005.8965513309
16	19821	2167.796171790872	1674.2079838927
16	19829	2169.246010411103	1005.5728693976
16	19853	2171.581611440806	1675.75962848
16	19863	2172.682181428641	1004.43777949
16	19877	2174.191321616834	1670.1099313422
16	19933	2179.202379617003	1000.1369504746
16	19939	2180.480267118201	1001.1419283802
16	19941	2180.69021773019	997.60480076154
16	19943	2180.779832656696	997.31454730468
16	19945	2180.869780150718	1670.1480881881
16	19949	2181.404508427396	996.67202335568
16	19955	2182.177500380494	1670.8195269087
16	19969	2185.396984702543	1946.4491992283
16	19973	2186.246581198791	998.40727099198
16	19997	2189.604007749924	1000.9274902354
16	20011	2190.914857557212	1673.66881089
16	20043	2193.103734116296	999.88495207362
16	20045	2193.529478650478	999.16590544477
16	20047	2193.580696515958	995.96561964734
16	20055	2193.964607395818	987.64290995594
16	20067	2197.42739247207	986.98990254232
16	20075	2198.881222393014	987.35017196606
16	20079	2201.041904961614	989.06767351481
16	21647	2356.602045398884	1832.1594288767
16	21649	2357.677979219718	1140.7282128724
16	21677	2359.425502627474	1824.5439190922
16	21715	2363.669302141602	1127.2202075915
16	21763	2366.919119934204	1822.8857157754
16	21833	2373.585624479573	2116.456275274
16	21835	2373.59647623491	1127.6314799341
16	21837	2373.667563200132	1126.016232011
16	21865	2376.377433838312	1108.0037415524
16	21987	2387.738153282289	1112.7157179157
16	22047	2393.555869859182	2110.7312293155
16	22049	2393.671875882155	1831.0653942466
16	22051	2393.741739864382	1826.9233102885
16	22053	2394.058935223817	1113.7105031212
16	22055	2394.149775509284	1113.4765531576
16	22147	2402.066106696569	1118.2801616743
16	22167	2403.437098262672	1111.9130452602
16	22169	2403.919967182378	1111.2450665944
16	22171	2403.988215226304	1110.9607935791
16	22285	2413.334370749164	1113.3495736586
16	22291	2413.83217245869	1843.7231331315
16	22335	2418.172699283878	1833.039821899
16	22337	2418.212037050918	2121.4307827298
16	22339	2418.652551794546	1825.4594824487
16	22341	2418.738429538318	1824.8235137155
16	22343	2418.929732170022	1821.8871393834
16	22933	2478.248690497413	1161.3196565954
16	22935	2478.655093390165	1160.748748309
16	22947	2480.049848462531	1161.7476328605
16	22949	2480.577130287123	1882.8188971239
16	22961	2481.865982574758	1155.4862748705
16	23077	2496.388070635736	2382.1867603337
16	23083	2497.45371916355	1892.9970120985
16	23085	2498.056718655686	1165.4110763831
16	23095	2498.869727109334	1888.7062254742
16	23105	2499.715475144965	1880.8921777697
16	23109	2499.884932623781	1158.8833071212
16	23111	2500.023081656409	2417.4923873934
16	23113	2500.131437077173	1873.9216177734
16	23115	2500.314671352376	1871.2607425993
16	23117	2500.336457311417	1157.7001723972
16	23119	2500.423237187915	1867.2842163092
16	23121	2500.467258589104	1865.8633407473
16	23123	2500.849666788938	1865.1087161727
16	23379	2526.961371584818	1173.6520142215
16	23381	2527.317932159619	1173.4810217799
16	24223	2618.653608636691	1253.1914095164
16	25595	2766.666675432686	2124.2734602237
16	25671	2774.360500492838	1401.0883907845
16	25673	2774.40386413153	1399.9319809709
16	25675	2774.929881638058	2123.8090747144
16	25691	2776.217174929809	2123.8021895788
16	25781	2784.979568011314	2128.7382019711
16	25783	2785.082312727983	1408.0327144385
16	25989	2806.631565017151	2142.2871667054
16	25993	2807.252322146087	2139.7965754141
16	25995	2807.552111695182	1428.7197583325
16	25997	2807.557972524072	1428.6319220666
16	26003	2808.270070780049	1426.8512812209
16	26005	2808.316175057067	2126.7537439101
16	26101	2816.784668339052	2132.5621266636
16	26141	2821.316227844845	1436.1913865062
16	26143	2821.450955034837	2688.5385347269
16	26145	2821.597094846968	1436.2689532678
16	26147	2821.740565245304	2131.6618191059
16	26149	2823.448839456185	1437.205045591
16	26151	2824.088353743328	2505.5818417093
16	26153	2824.82288146957	2133.6792055654
16	26155	2825.107979558848	2133.5305514066
16	26159	2826.55474846775	1433.2680416083
16	26371	2848.252567835219	1443.99049481
16	26387	2850.318690645419	1437.6476160041
16	26389	2850.338379473391	1433.8175868586
16	26393	2850.825992555825	1426.8981739629
16	26413	2853.619814061695	1425.88295594
16	26473	2863.340092726557	1433.9026636148
16	26719	2887.873268519998	1451.7836037694
16	26751	2891.817059185641	1450.6049043166
16	26763	2892.094797403026	1449.2018330693
16	26775	2893.478961390958	1449.5228793137
16	26949	2913.69426847877	1464.4282738197
16	26951	2914.029701130135	1461.3743039701
16	27053	2926.163137028075	1472.1409025978
16	27295	2951.949234919804	1496.2906300301
16	27297	2953.951502393256	2251.2661333707
16	27299	2954.344956284397	2619.8234287157
16	27301	2954.869685933084	2619.6524288592
16	27303	2955.10268227921	2248.6712327143
16	27305	2955.733116244946	2614.3757009675
16	27401	2965.851812123786	1499.2018623392
16	27601	2987.397495560304	2250.5096844107
16	27787	3009.832973137432	1529.150441052
16	27837	3015.831529116925	1533.4632122208
16	27919	3023.108793054132	1537.8230789928
16	27961	3027.336274233227	1531.7141227439
16	27975	3029.108704581108	1517.2423223226
16	27977	3029.119116050765	1515.5266942021
16	27979	3029.266844149201	1514.4423946768
16	27985	3029.836290333966	1507.49513197
16	27991	3030.27002163104	1499.4679989759
16	28033	3033.787299663317	1497.5476042071
16	28039	3034.988346298883	1493.1907207303
16	28043	3035.464501755472	1492.7885569102
16	28045	3036.756615904537	2264.2595514296
16	28047	3037.412640550408	2263.7219982776
16	28199	3052.242996983702	2245.6453386614
16	28215	3054.828820048272	2237.642941212
16	28241	3057.69918854165	1491.3390344593
16	28247	3058.201712330051	1490.5973517319
16	28789	3112.165281138209	2278.9111780108
16	28793	3112.186319400334	2277.8704644483
16	28811	3114.013927989538	2263.2450837567
16	28813	3114.150198196721	1533.9015414572
16	28825	3116.251870113986	1533.4162525738
16	28827	3116.70241266601	1533.7899303509
16	28841	3118.308400004553	2259.2072558025
16	28881	3122.418180608765	1530.0400723927
16	28885	3123.681381219988	1529.4190910012
16	28887	3123.873523266418	2255.7169585368
16	28899	3125.161364336214	2254.8069834394
16	28917	3127.594454146965	2248.9043513124
16	28919	3127.755091535089	1526.3480851347
16	28921	3129.010739445457	2247.9883583238
16	28957	3134.246676210861	1530.9737770023
16	28987	3138.636320798842	1530.6034661997
16	28989	3138.992167889272	2246.7173053406
16	28991	3139.759732534947	2243.9262469111
16	28993	3140.569561648057	2242.9921019941
16	28995	3140.60628479469	2242.2251729525
16	29403	3179.160695219837	1566.0503360181
16	29431	3181.828302378203	1565.7340717138
16	29483	3185.882910320586	1566.3472546962
16	29859	3224.546527840237	1593.4791669887
16	29861	3224.580459257955	1591.5264010473
16	29877	3225.718360606049	1586.3474957708
16	29885	3227.95760591893	1583.4420298447
16	29887	3228.371137058653	1581.2356817389
16	29889	3228.407865346425	1579.5869174679
16	29909	3232.055620842622	1580.6215312915
16	29927	3233.769812481439	1574.6630445061
16	29929	3233.813796430048	1571.7740438045
16	29945	3235.39400087782	1563.4241867675
16	29949	3236.128096118177	1563.5166546101
16	29951	3236.709774227774	1561.6561108648
16	29957	3237.997993283216	1561.094385401
16	29971	3239.952230384507	1561.940522779
16	29973	3240.020929198748	1557.8313035793
16	29989	3241.727547575039	1557.2410330272
16	30047	3247.603559505796	1561.2134048173
16	30049	3248.312319085186	1561.7696534458
16	30059	3249.456471546092	1556.4895380629
16	30123	3254.901945626955	1551.0017776318
16	30127	3255.03092170318	1548.606251624
16	30129	3255.879135224483	1549.2899373164
16	30131	3255.915059609114	1548.5505726598
16	30133	3256.322844471974	1546.7372520851
16	30135	3256.55377709562	1545.6735910549
16	30141	3257.914693261093	1545.4028471999
16	31687	3411.679509957251	2482.3505784284
16	31689	3411.721791182082	1696.3341690879
16	31691	3413.162403427589	1697.5409940099
16	31693	3413.382835851693	1697.2842291025
16	31695	3413.763401593523	2483.9042875714
16	31701	3414.931121895951	2480.6665569817
16	31707	3415.710359256847	2468.9874596409
16	31741	3419.556329005831	2466.917828908
16	31771	3421.99469160048	2458.2090706713
16	31935	3439.844376758542	1712.6172566936
16	31937	3440.072508743231	1712.5140207324
16	31939	3440.301481778204	1712.1769745723
16	31941	3440.64739878495	2472.6191434244
16	31945	3441.153762605067	2464.6967944859
16	32007	3447.809459232741	1716.8800194086
16	32011	3448.741971938023	2467.0899611048
16	32015	3448.831870879745	1717.0223834908
16	32017	3449.329782827011	1716.538307399
16	32021	3449.547807109873	2462.1411634208
16	32023	3451.27495500837	1718.370302119
16	32027	3452.454679224083	1718.4789860121
16	32031	3453.368479919275	1718.8045266446
16	32051	3455.213539621318	2466.6004730456
16	32053	3455.389205882254	2466.0994250676
16	32055	3455.633608950466	1712.8736723874

