version 2
run Net1-0-20200113-18:23:45-2804
attr configname Net1
attr datetime 20200113-18:23:45
attr experiment Net1
attr inifile omnetpp.ini
attr iterationvars ""
attr iterationvarsf ""
attr measurement ""
attr network Net
attr processid 2804
attr repetition 0
attr replication #0
attr resultdir results
attr runnumber 0
attr seedset 0
param **.gen.interArrivalTime1 exponential(0.2s)
param **.gen.interArrivalTime2 exponential(0.3s)
param **.gen.interArrivalTime3 exponential(0.4s)
param **.gen.interArrivalTime4 exponential(0.5s)
param **.gen.interArrivalTime5 exponential(0.6s)
param **.sys.serviceTime1 exponential(0.3s)
param **.sys.serviceTime2 exponential(0.4s)
param **.sys.serviceTime3 exponential(0.5s)
param **.sys.serviceTime4 exponential(0.6s)
param **.sys.serviceTime5 exponential(0.7s)
param **.sys.timeSlot 0.5s
param **.gen.numberofpriority 5
param **.sys.numberofpriority 5

vector 0 Net.sys qlen1:vector ETV
attr interpolationmode sample-hold
attr title "queue length, vector"
vector 1 Net.sys responseTime3:vector ETV
attr interpolationmode none
attr title "response time at end of service, vector"
attr unit s
vector 2 Net.sys queueingTime1:vector ETV
attr interpolationmode none
attr title "queueing time at dequeue, vector"
attr unit s
vector 3 Net.sink lifetime:vector ETV
attr interpolationmode none
attr title "lifetime of arrived msg, vector"
attr unit s
vector 4 Net.sink arrivedMsg:vector ETV
attr interpolationmode none
attr title "number of arrived msg, vector"
vector 5 Net.sys qlen2:vector ETV
attr interpolationmode sample-hold
attr title "queue length, vector"
vector 6 Net.sys queueingTime2:vector ETV
attr interpolationmode none
attr title "queueing time at dequeue, vector"
attr unit s
vector 7 Net.sys qlen0:vector ETV
attr interpolationmode sample-hold
attr title "queue length, vector"
vector 8 Net.sys qlen3:vector ETV
attr interpolationmode sample-hold
attr title "queue length, vector"
vector 9 Net.sys queueingTime3:vector ETV
attr interpolationmode none
attr title "queueing time at dequeue, vector"
attr unit s
vector 10 Net.sys responseTime0:vector ETV
attr interpolationmode none
attr title "response time at end of service, vector"
attr unit s
vector 11 Net.sys queueingTime0:vector ETV
attr interpolationmode none
attr title "queueing time at dequeue, vector"
attr unit s
vector 12 Net.sys qlen4:vector ETV
attr interpolationmode sample-hold
attr title "queue length, vector"
vector 13 Net.sys responseTime1:vector ETV
attr interpolationmode none
attr title "response time at end of service, vector"
attr unit s
vector 14 Net.sys queueingTime4:vector ETV
attr interpolationmode none
attr title "queueing time at dequeue, vector"
attr unit s
vector 15 Net.sys responseTime4:vector ETV
attr interpolationmode none
attr title "response time at end of service, vector"
attr unit s
vector 16 Net.sys responseTime2:vector ETV
attr interpolationmode none
attr title "response time at end of service, vector"
attr unit s
0	4	0.397937252283	1
0	5	0.53913623309	0
0	20	2.436329272661	2
0	27	2.725031536646	1
0	45	5.277580662503	0
0	61	6.671228484394	1
0	64	7.0576400622	0
0	67	7.523997990946	1
0	79	9.722858442895	1
0	95	11.996703551168	1
0	108	13.556148537533	0
0	164	19.815970051429	1
0	175	21.885040616869	0
0	188	22.471204163274	1
0	193	22.724532501332	2
0	194	22.830358577112	1
0	202	23.664883131293	3
0	210	24.507315612988	2
0	214	24.721096402327	3
0	218	24.881615805452	4
0	234	25.845618888931	5
0	235	25.883101738713	4
0	242	26.003861761244	5
0	249	27.222694394587	4
0	262	28.821827656991	3
0	272	30.384218508756	3
0	281	31.339158266301	2
0	294	32.392163278585	1
0	307	33.746081692545	0
0	336	38.557990348759	1
0	344	39.212642486067	0
0	379	41.92499041388	1
0	380	41.972717498747	0
0	394	44.677374188952	0
0	397	44.76855947279	1
0	401	45.447679545548	2
0	411	47.999482977902	1
0	426	49.897251484619	0
0	436	50.96579052359	1
0	440	51.771705269363	0
0	461	54.397923241036	1
0	467	54.816080252349	2
0	469	54.821894186753	3
0	480	55.730690756838	2
0	497	57.13454718851	1
0	500	57.279235739653	2
0	512	58.119728694871	3
0	520	59.330872488992	2
0	527	59.633150857758	3
0	537	61.005288991398	5
0	541	61.414534098759	4
0	546	61.479715948329	5
0	561	66.972920341278	6
0	570	68.302091671772	5
0	582	69.600199830773	4
0	600	70.530506406812	5
0	601	70.678140560384	4
0	613	71.729659742647	6
0	617	72.092761968772	5
0	620	72.310632913894	6
0	622	72.44450876005	7
0	637	74.159703731202	7
0	640	74.173060557806	8
0	656	75.702237629261	7
0	667	77.411023186297	6
0	676	78.134129360237	7
0	683	79.302842425277	6
0	691	80.655196225337	7
0	697	81.641020850666	6
0	703	81.975509865808	7
0	709	82.146806683079	8
0	717	82.887712233497	7
0	729	83.792279978431	8
0	742	84.590000379316	7
0	761	86.349372791414	9
0	762	86.426974728752	8
0	775	88.471823793414	9
0	776	88.553367116634	8
0	794	89.98501224202	7
0	800	90.674938869124	8
0	808	91.649480654082	7
0	824	93.10771437781	6
0	834	94.562726173886	7
0	849	97.189734684221	6
0	871	98.842568780976	6
0	878	99.186282402505	7
0	884	100.138163430176	6
0	899	101.36038916064	5
0	917	102.391761619419	6
0	928	103.341798007085	5
0	931	103.991091302737	7
0	939	104.964887810796	6
0	948	105.472287935693	7
0	955	106.209455687825	6
0	964	106.486996863718	7
0	966	106.491966692044	8
0	975	107.78658529161	7
0	983	108.470135574964	9
0	987	108.569923439906	10
0	999	109.906693770401	9
0	1006	110.488404298667	10
0	1013	111.398334228815	9
0	1026	113.797839720797	9
0	1038	115.136046594139	10
0	1039	115.511471517065	9
0	1053	117.278286298572	8
0	1065	118.319457890455	7
0	1068	118.427447066595	8
0	1079	119.243653540028	7
0	1082	119.303459739515	8
0	1090	120.46203045673	7
0	1093	120.487749719783	8
0	1103	122.413552206115	8
0	1120	123.376129101427	7
0	1128	124.553900437387	8
0	1133	124.565010364885	9
0	1134	124.789710857416	8
0	1146	125.294312959985	7
0	1164	127.506768661248	8
0	1166	127.649712236027	9
0	1167	127.746864467027	8
0	1183	128.480031695685	9
0	1187	128.71379070668	8
0	1190	128.926198193118	9
0	1199	129.620541909332	10
0	1207	130.351915741443	9
0	1226	132.587442805806	8
0	1237	133.221043935174	9
0	1242	133.403089223698	8
0	1254	134.424482636843	9
0	1256	134.438174051692	10
0	1257	134.791752641941	9
0	1263	135.184449126199	10
0	1277	136.526630440834	12
0	1280	136.877396086607	11
0	1288	137.544061432156	12
0	1300	138.495868509645	11
0	1323	139.868246690501	10
0	1334	141.122855039825	9
0	1339	141.715875503734	10
0	1342	142.102264096257	11
0	1350	143.108637071416	10
0	1370	144.997631688959	9
0	1383	145.941925730889	8
0	1395	147.699702254576	7
0	1409	149.748496845044	7
0	1417	150.763945894563	7
0	1430	152.483793099151	6
0	1442	153.737246296926	5
0	1452	154.817846656661	4
0	1461	155.570596287148	5
0	1466	156.185551931132	6
0	1467	156.326825717667	5
0	1477	157.429714695223	4
0	1493	158.440443604723	3
0	1508	159.444681298479	2
0	1511	159.469320208992	3
0	1530	160.1582412942	2
0	1544	161.489052927232	2
0	1551	162.148397887502	3
0	1558	163.22645599448	2
0	1562	163.370238625716	3
0	1572	164.248237215129	2
0	1575	164.453953848504	3
0	1590	166.113649236034	2
0	1595	166.667844863112	3
0	1604	167.872814682501	4
0	1605	167.898635098631	3
0	1623	169.485876026902	2
0	1634	171.146760055087	1
0	1642	172.944641560437	0
0	1649	173.172149496934	1
0	1670	175.592810604689	0
0	1682	176.809046131569	2
0	1687	177.022683563334	1
0	1699	177.908030144524	2
0	1705	178.447877938655	1
0	1723	180.3275923462	1
0	1734	181.910506756905	0
0	1743	182.576582452644	1
0	1751	184.281754759799	2
0	1752	184.50252524237	1
0	1768	185.320866930176	0
0	1773	185.598308536625	1
0	1785	186.48776268924	0
0	1803	189.16423453777	0
0	1811	189.685288984178	2
0	1818	190.380088595035	1
0	1837	192.315508210852	1
0	1854	193.822369770479	2
0	1859	195.129417486567	1
0	1868	195.536047595576	2
0	1878	196.753750844685	1
0	1892	198.692906334237	0
0	1914	200.344215714276	0
0	1939	202.015740610222	1
0	1945	202.796292501084	0
0	1988	207.571325015915	1
0	1997	208.931587037431	0
0	2000	209.273909129524	1
0	2009	210.038881665263	3
0	2014	210.559429520977	2
0	2028	212.192498721234	1
0	2035	212.677905928724	2
0	2037	212.836349125941	3
0	2047	214.283412502412	4
0	2048	214.290854797683	3
0	2059	215.870892763069	2
0	2073	216.794787874795	3
0	2077	217.329193717318	2
0	2098	218.725820201156	4
0	2102	219.045361228772	5
0	2103	219.117514998374	4
0	2109	219.755832044673	5
0	2116	220.383957458436	6
0	2123	220.811662760884	5
0	2129	221.442790342384	6
0	2138	222.090072095773	7
0	2140	222.277501039871	6
0	2149	222.735010892145	7
0	2156	223.520225546679	6
0	2169	224.950459075221	7
0	2181	225.748427941909	6
0	2195	227.131350617814	5
0	2208	228.032091611556	4
0	2215	228.44641829924	5
0	2231	229.713368365555	4
0	2235	230.111782974951	5
0	2241	230.892254364231	4
0	2251	231.886726508309	5
0	2256	232.584859811147	4
0	2261	232.610223093953	5
0	2269	234.159921862935	4
0	2281	236.252023120242	3
0	2300	237.364108991936	3
0	2314	238.599748057142	2
0	2328	239.796224861135	1
0	2341	241.600645967178	1
0	2349	243.26219690961	1
0	2362	244.582008056845	2
0	2369	244.951913286386	1
0	2384	246.269615710834	0
0	2395	247.077738628645	2
0	2405	248.121867311845	1
0	2414	248.973943058822	0
0	2472	254.045773381921	1
0	2475	254.122635349951	0
0	2483	254.90152051705	1
0	2490	255.297057968924	0
0	2496	255.824438830217	2
0	2502	256.087129508381	3
0	2505	256.451556220951	4
0	2507	256.753738027468	5
0	2511	257.355203802307	4
0	2520	258.419916364927	3
0	2534	260.462454399375	2
0	2543	261.49707142708	1
0	2550	262.749627393294	3
0	2553	263.050684709664	4
0	2555	263.160865159913	5
0	2561	263.22172160483	6
0	2564	263.404758518823	5
0	2571	263.46817287044	6
0	2584	263.801483572344	5
0	2594	264.655851610102	6
0	2597	265.108424565143	5
0	2612	266.23375878265	6
0	2618	266.62551897861	5
0	2621	266.717093816394	6
0	2638	268.091200424174	6
0	2648	269.897130615737	8
0	2649	270.241057960438	7
0	2658	271.133529594963	9
0	2673	271.903769010945	8
0	2683	272.702858588865	9
0	2691	273.252827125998	10
0	2692	273.259980084515	9
0	2709	274.627993479214	8
0	2721	276.126492039106	7
0	2739	278.141721703813	7
0	2753	279.625872254773	6
0	2760	279.724636949921	7
0	2765	280.371483334488	6
0	2771	281.183920874022	8
0	2783	282.871483334488	7
0	2792	284.914173989873	7
0	2801	286.209288910361	6
0	2819	287.807558176284	5
0	2835	289.142510624607	4
0	2843	289.951108529985	6
0	2852	290.835708248169	7
0	2855	290.996494203466	6
0	2864	291.522367654537	5
0	2880	292.789059759963	4
0	2885	293.235049205409	5
0	2895	294.067988915326	7
0	2899	294.819282755041	6
0	2920	296.221819709487	5
0	2925	296.79417556036	6
0	2927	297.066125943526	7
0	2935	298.228406167594	6
0	2951	300.276446073991	7
0	2952	300.278245779181	6
0	2967	300.695109368854	7
0	2978	301.847875773132	6
0	2985	302.193275577875	7
0	2997	302.507060043617	8
0	2999	302.577114155428	9
0	3007	302.772584859598	10
0	3010	303.088815724756	9
0	3021	303.974192156309	11
0	3023	304.315218883458	10
0	3033	305.290419501125	11
0	3041	305.827132905397	12
0	3042	305.950028290084	11
0	3058	307.064757439403	10
0	3074	308.632099325293	9
0	3090	310.549385715786	9
0	3102	311.780888599214	8
0	3114	313.330537239713	7
0	3132	315.378838219914	7
0	3147	316.546363029648	6
0	3157	317.429395824453	5
0	3169	319.14091645442	5
0	3183	320.586749557767	4
0	3188	321.060238998863	5
0	3199	322.430882917346	4
0	3214	323.709960245031	5
0	3217	324.029096839887	4
0	3229	326.201804069935	3
0	3244	327.788405985477	2
0	3247	327.847966382889	3
0	3262	329.193701160951	2
0	3264	329.414813834242	3
0	3270	329.846931315744	4
0	3276	330.927975089859	3
0	3285	331.444286169041	4
0	3295	332.500343151687	3
0	3310	333.818102341793	2
0	3313	333.84779874246	3
0	3330	335.474876686161	5
0	3332	335.73385124944	6
0	3336	335.927852793535	5
0	3346	336.705602224213	7
0	3353	337.815766151784	6
0	3358	338.018155050499	7
0	3362	338.212902620779	8
0	3370	339.348572662906	7
0	3383	341.0248285777	7
0	3395	342.064359879127	8
0	3404	342.845259589804	7
0	3412	344.277067945117	6
0	3414	344.454726563118	7
0	3425	345.083417656986	6
0	3439	346.918410138096	5
0	3451	348.352376962282	6
0	3452	348.62092730777	5
0	3462	350.035165974116	4
0	3468	350.256056276505	5
0	3484	351.950597201274	4
0	3491	352.383426510535	5
0	3501	353.108312333226	4
0	3511	354.160652775327	5
0	3512	354.262350813937	4
0	3515	354.363363470055	5
0	3527	355.706768511043	7
0	3532	356.438512425326	6
0	3543	357.792176171348	5
0	3552	358.597038563925	6
0	3558	359.111635306944	5
0	3568	360.110896538188	7
0	3575	361.184933203219	6
0	3581	361.592099347424	7
0	3583	361.889870082778	8
0	3599	362.909418880505	7
0	3612	364.067745026971	6
0	3621	364.308239260885	7
0	3626	365.141015885154	6
0	3646	367.122544654782	7
0	3648	367.136036155163	8
0	3649	367.232428388724	7
0	3658	367.686574255357	8
0	3663	367.751958831013	10
0	3673	368.545219979831	9
0	3689	369.739792121407	11
0	3690	369.744578443933	10
0	3693	369.754168696535	11
0	3700	371.232084108587	10
0	3717	372.909712779195	10
0	3727	374.971211271412	10
0	3732	375.131477629437	11
0	3748	376.114897080483	10
0	3757	377.44234795927	12
0	3770	378.061087083723	11
0	3787	379.036038646402	10
0	3801	379.974476904648	9
0	3816	380.93657510936	9
0	3826	382.127156000202	10
0	3831	382.712533568736	9
0	3835	382.82755322831	10
0	3839	382.939146030838	11
0	3848	383.959356351497	10
0	3868	385.075133915663	11
0	3874	385.159816019861	12
0	3881	386.447597900241	11
0	3891	387.037810486827	10
0	3900	388.247060683734	9
0	3909	388.52436077597	10
0	3917	389.469450143531	9
0	3922	389.808080099539	10
0	3937	391.17234401311	9
0	3945	392.852793249294	9
0	3948	392.957128373044	10
0	3954	393.791539160073	11
0	3962	394.283184545673	10
0	3974	395.535123596208	10
0	3985	397.330126243244	10
0	3999	398.757482599225	9
0	4013	400.429335427235	8
0	4029	401.936109942538	7
0	4041	402.618670170176	9
0	4050	403.251591604705	8
0	4064	404.795445221824	7
0	4069	405.238778443989	8
0	4076	406.349269686723	7
0	4085	407.619432360834	6
0	4095	408.338161676255	8
0	4103	408.826933925235	9
0	4106	409.184099764264	10
0	4115	409.736997375252	9
0	4133	411.608200181966	8
0	4138	411.86526785498	9
0	4140	411.899610273798	10
0	4154	413.337948931048	12
0	4155	413.370064435263	11
0	4173	414.528551056398	10
0	4178	414.637230225503	11
0	4185	415.04322288144	13
0	4195	415.675833054222	14
0	4196	416.130669158591	13
0	4206	417.409391129423	15
0	4214	418.091361337493	14
0	4223	418.927900651308	15
0	4225	419.187048716562	14
0	4235	419.587388295647	13
0	4240	419.883494066591	14
0	4248	420.675018529379	16
0	4260	421.719436270823	15
0	4270	423.867503202416	15
0	4281	425.432278356784	14
0	4293	427.233492501181	16
0	4294	427.260957748995	15
0	4308	429.04886853845	14
0	4310	429.11280800557	15
0	4317	429.896880189281	17
0	4322	430.841209441721	16
0	4335	432.241627659326	16
0	4348	433.003572398724	17
0	4350	433.156431529925	18
0	4357	433.977862296421	17
0	4371	435.981269826922	19
0	4372	436.125951860164	18
0	4387	437.735501761788	19
0	4392	438.428904787885	18
0	4414	439.945911006466	18
0	4422	441.691465332459	18
0	4437	443.275951518473	18
0	4446	444.587944676253	17
0	4456	445.296906127123	18
0	4459	445.379060706558	17
0	4471	445.972612613991	16
0	4478	446.275870361042	17
0	4482	446.603239636019	18
0	4496	447.19120810351	19
0	4500	447.377502241925	20
0	4501	447.380557783268	19
0	4525	449.240073633874	19
0	4535	450.606447581739	18
0	4544	452.390369655402	17
0	4555	453.845955138755	16
0	4567	455.277091870958	18
0	4570	455.702977371212	19
0	4574	456.053912136229	18
0	4584	458.553912136229	18
0	4592	459.059424938966	19
0	4595	459.364763525032	20
0	4602	460.043847677646	21
0	4603	460.062042016156	20
0	4610	460.48491763613	21
0	4617	461.1840135608	20
0	4632	462.344606301554	22
0	4641	462.885433899773	21
0	4653	463.773572101271	23
0	4659	464.259300471759	22
0	4673	465.203240994926	21
0	4691	466.726353842981	21
0	4698	467.532513016172	22
0	4705	468.315048848528	21
0	4710	469.322496695689	23
0	4715	469.965023712811	22
0	4724	471.137652958218	24
0	4730	471.964903027887	23
0	4749	474.035091630362	22
0	4764	475.384990009574	21
0	4777	477.118392737385	23
0	4785	477.510602476612	22
0	4788	477.991579359053	23
0	4798	479.14582467323	23
0	4819	480.607059854988	22
0	4828	482.000429635405	21
0	4833	482.596164299065	22
0	4845	483.487855944303	21
0	4856	483.962168612954	22
0	4862	484.857450051982	21
0	4870	485.687234192225	22
0	4877	486.247839600351	21
0	4884	486.316727202308	22
0	4898	487.890765658182	21
0	4912	489.033020587096	20
0	4915	489.194080702268	21
0	4927	490.701375720157	21
0	4940	492.946596755335	20
0	4952	495.199582759561	20
0	4966	496.981201135745	19
0	4976	498.01691074876	20
0	4989	498.771050864347	21
0	4990	499.003303153551	20
0	5005	499.99435636706	19
0	5008	500.03960448278	20
0	5012	500.272594399146	21
0	5014	500.583745963991	22
0	5024	501.40722750532	21
0	5043	503.511174511064	20
0	5059	505.813390631545	19
0	5079	507.759097714568	18
0	5091	508.856766515583	18
0	5104	510.048990729615	17
0	5117	511.214169281139	16
0	5152	513.289365609382	16
0	5164	514.494273862087	15
0	5172	516.394536048227	14
0	5182	517.763671845379	15
0	5183	517.853888662603	14
0	5197	519.516869180759	13
0	5203	520.662268844432	15
0	5207	521.280854345323	14
0	5214	521.662866257247	15
0	5226	522.330499202424	14
0	5231	522.800947891238	15
0	5243	524.377225171999	15
0	5262	525.772443166242	16
0	5263	525.885995305129	15
0	5268	526.460021246165	17
0	5275	526.960289565752	16
0	5280	527.402061820996	17
0	5289	528.799846775321	17
0	5294	529.166151717199	18
0	5297	529.506014995186	20
0	5304	530.765067862326	19
0	5319	532.591568786343	19
0	5324	532.709260809584	20
0	5330	532.898139458939	21
0	5347	534.160791181484	20
0	5361	535.226350408453	19
0	5369	536.288898238514	20
0	5377	538.029136566302	19
0	5380	538.050235393063	20
0	5397	539.719007746435	21
0	5400	540.216763146092	20
0	5412	541.057425298788	19
0	5421	541.988373153263	18
0	5430	543.106374660763	17
0	5433	543.216904103848	18
0	5440	544.28278719813	19
0	5444	544.92902456347	18
0	5447	544.93283483917	19
0	5460	546.176491623731	20
0	5468	547.112481587024	19
0	5472	547.146895552308	20
0	5481	547.7328154472	21
0	5489	548.705437498523	20
0	5496	550.415671965361	22
0	5504	551.11141506025	21
0	5515	552.363284051616	22
0	5519	552.907302989336	21
0	5531	554.517403968095	21
0	5546	556.473753879044	20
0	5557	558.044329985634	22
0	5562	558.331753826667	21
0	5573	559.010343214514	22
0	5577	559.207123171062	23
0	5584	559.977547481493	22
0	5600	561.214249690188	23
0	5601	561.22774926002	22
0	5609	562.952656204155	21
0	5621	563.871870328962	22
0	5624	564.183441579495	21
0	5634	565.323546165161	23
0	5643	565.837895252215	22
0	5646	565.984032204517	23
0	5654	566.470904729625	24
0	5662	566.80675735208	25
0	5669	567.38749828715	26
0	5672	567.731169262015	25
0	5682	568.642497609406	27
0	5691	568.913068892561	26
0	5703	570.511746206824	25
0	5718	572.293127599512	24
0	5730	573.535814916413	26
0	5742	574.252646394452	25
0	5756	575.347652923464	26
0	5759	575.565720696199	25
0	5764	575.831424088911	26
0	5771	576.101260098787	28
0	5782	577.537934242772	27
0	5793	579.217396044049	26
0	5799	579.652802219442	27
0	5805	580.143275852089	26
0	5823	582.112518942175	27
0	5824	582.245725727029	26
0	5835	582.832253000585	27
0	5840	583.659064631598	28
0	5846	583.745325267528	27
0	5853	583.952569731803	28
0	5866	585.652635633117	27
0	5869	585.869428456271	28
0	5880	587.339303196037	30
0	5882	587.772766764315	29
0	5885	587.790879065432	30
0	5895	588.617783621963	29
0	5903	589.728472749277	30
0	5908	590.034770970415	29
0	5920	591.192020218411	28
0	5931	592.619325804634	27
0	5941	594.418453995407	26
0	5952	595.849011363591	27
0	5955	596.042660868225	26
0	5970	597.453024956365	26
0	5983	598.773872811226	25
0	6000	601.05316455507	25
0	6009	602.254862540876	26
0	6016	602.732974751086	25
0	6036	604.398650374864	24
0	6042	605.018176708265	26
0	6051	606.657732979616	25
0	6062	607.154682839388	26
0	6072	608.280844187312	25
0	6085	608.637424003143	24
0	6088	608.689290457766	25
0	6092	608.932454745276	26
0	6102	610.551552972697	25
0	6116	611.830348517405	24
0	6129	612.520703656077	25
0	6138	613.523252506484	24
0	6151	615.601215369208	26
0	6154	615.663528378317	25
0	6170	617.768047262325	25
0	6188	619.431132700521	24
0	6191	619.51188908631	25
0	6201	620.683483089289	24
0	6213	622.218666473178	23
0	6225	623.33887597537	22
0	6246	624.605266539706	24
0	6249	624.889512097652	23
0	6262	625.335412697457	24
0	6268	625.514050175968	25
0	6273	626.202490547888	24
0	6276	626.225180685092	25
0	6286	628.164558283844	25
0	6298	629.785354996716	24
0	6305	630.027535592818	25
0	6318	630.617666503764	26
0	6323	630.888860971469	25
0	6326	631.180726260926	26
0	6334	631.467664600791	27
0	6350	632.817762992843	26
0	6352	633.091172877091	27
0	6364	633.815871570053	27
0	6380	635.349398330297	28
0	6381	635.369296900068	27
0	6396	637.440464430322	27
0	6404	638.258865829799	28
0	6413	638.691808730973	27
0	6426	639.307967752305	28
0	6430	640.183871645296	27
0	6448	642.144311810685	26
0	6459	643.439146973611	25
0	6465	644.104774368548	26
0	6472	644.674713543982	27
0	6476	645.501226634055	26
0	6488	647.403004586473	27
0	6490	647.406892853556	28
0	6491	647.643568030193	27
0	6494	647.950262113902	28
0	6507	648.83687199072	30
0	6511	649.223310651525	31
0	6513	649.252761975007	30
0	6530	650.620486137791	32
0	6531	650.693043828147	31
0	6540	653.153203298251	30
0	6548	655.041086719895	29
0	6559	656.602036119063	29
0	6572	658.106545721361	28
0	6586	659.419162830592	27
0	6589	659.634293788199	28
0	6598	660.098556758104	30
0	6600	660.29676113516	31
0	6607	661.047310089821	30
0	6622	662.784333565418	29
0	6638	664.011942454073	28
0	6652	665.676065729995	27
0	6675	667.77026856994	26
0	6686	668.777636770625	25
0	6697	671.031171027029	26
0	6701	671.539623552156	27
0	6702	671.564919783949	26
0	6711	672.042670847632	27
0	6732	673.14175298002	26
0	6737	673.376438239333	27
0	6747	674.648810058948	28
0	6748	674.766539875596	27
0	6756	675.776900761334	29
0	6763	676.383106563391	28
0	6783	678.780613561776	27
0	6788	679.086683916116	28
0	6797	679.996477166813	27
0	6804	681.531360175545	28
0	6810	681.629788577877	27
0	6813	681.833475115121	28
0	6831	683.701323005489	28
0	6850	685.231437999962	27
0	6864	687.326936248416	27
0	6881	688.759698138776	26
0	6891	690.146296370571	25
0	6912	691.8827264368	24
0	6922	693.151560432619	23
0	6931	693.620277010349	24
0	6935	694.044688596632	23
0	6942	694.154397402632	24
0	6948	695.314706127832	23
0	6969	696.891022538389	22
0	6976	697.196196182547	23
0	6978	697.398762433891	24
0	6990	698.108550648531	23
0	7007	700.212728005593	23
0	7020	701.014067105189	24
0	7026	701.072386411637	25
0	7029	701.30733164934	24
0	7046	703.113499047351	25
0	7047	703.146965866182	24
0	7070	705.299154259907	24
0	7082	706.365731468399	25
0	7086	706.820491504003	24
0	7097	707.977152418118	23
0	7108	710.195427556319	23
0	7119	710.892934690704	24
0	7125	711.61434283475	23
0	7134	712.714513464908	24
0	7136	713.22090701237	23
0	7146	714.472285301951	22
0	7160	716.177749830621	22
0	7175	717.223882221552	23
0	7180	717.946171143611	22
0	7192	719.041739058037	23
0	7193	719.371001139503	22
0	7201	719.906428229854	23
0	7208	720.444449429069	24
0	7215	721.020589916638	23
0	7230	722.39919792098	23
0	7233	722.411136312692	24
0	7247	723.134187633707	25
0	7248	723.204628150232	24
0	7270	724.059108121225	23
0	7284	726.257836723046	22
0	7293	726.721319730713	21
0	7302	728.264151887857	20
0	7317	729.472764975946	19
0	7331	730.974428771733	18
0	7341	732.054178226625	19
0	7347	732.751212069128	18
0	7352	732.891242141549	19
0	7367	734.336651794943	18
0	7369	734.636619100215	19
0	7381	736.124311434279	19
0	7394	737.099697541737	20
0	7396	737.118970457637	19
0	7408	738.993957297966	18
0	7417	740.187301153303	17
0	7424	740.797275215589	18
0	7435	741.278271144443	19
0	7440	741.627622919196	18
0	7448	742.53552612625	19
0	7451	742.685081146795	20
0	7462	743.474884972378	19
0	7467	743.601528837233	20
0	7481	744.699435177091	19
0	7486	744.810191663432	20
0	7499	745.770572950946	19
0	7518	747.459383489983	21
0	7521	747.722356264422	20
0	7540	749.861175557103	19
0	7568	751.516736403883	18
0	7579	753.242023154447	17
0	7595	754.834095021606	18
0	7596	755.071158703886	17
0	7622	756.625793970326	19
0	7623	756.689615736822	18
0	7638	758.008882901593	19
0	7639	758.464352992533	18
0	7661	759.643114977664	17
0	7675	761.516559421774	16
0	7689	763.707875416397	15
0	7702	765.255860178554	14
0	7711	766.766537563618	13
0	7722	767.901212545979	12
0	7743	769.526382973671	11
0	7761	770.953583815049	10
0	7764	771.204544007715	11
0	7766	771.363864966714	12
0	7776	772.055458303455	14
0	7782	773.044384544295	15
0	7787	773.453583815049	14
0	7803	774.6653642174	16
0	7810	775.856360426926	15
0	7824	777.889678394805	14
0	7841	779.300426564655	13
0	7852	780.905723884011	12
0	7855	780.935938872308	13
0	7869	782.629750971916	12
0	7883	783.973599692406	11
0	7894	784.599594888702	12
0	7902	785.427253292805	11
0	7916	787.52069522773	10
0	7920	787.733852206258	11
0	7924	787.922072255329	12
0	7927	788.585288949298	13
0	7934	789.280341146372	12
0	7954	790.89795982362	11
0	7957	791.078289862678	12
0	7966	791.927415669876	13
0	7970	792.486202190972	12
0	7983	793.804183492485	11
0	7988	794.272145401769	12
0	7994	795.016035586242	11
0	8001	795.090730784123	12
0	8003	795.183903793047	13
0	8016	796.229922534486	12
0	8019	796.617586995211	13
0	8025	797.622692213368	15
0	8031	797.721625907644	16
0	8034	797.778669679981	15
0	8042	799.737018743786	17
0	8044	799.859900672478	16
0	8051	800.030400655253	17
0	8062	801.503962361772	18
0	8065	801.678607469604	17
0	8076	802.380816782412	19
0	8080	802.951864685242	20
0	8084	803.449141335732	19
0	8098	804.351771752133	18
0	8103	804.866465606745	19
0	8106	805.355679674641	20
0	8116	806.323043289246	21
0	8119	806.794867069517	20
0	8129	808.340726022672	22
0	8131	808.843641818564	21
0	8147	810.129329092871	20
0	8157	811.213732667716	21
0	8162	811.864801427695	20
0	8176	813.520728068909	21
0	8179	813.637715024698	20
0	8190	814.858923402391	19
0	8197	815.051519666766	20
0	8199	815.129036813328	21
0	8215	817.294677500819	21
0	8217	817.698832419693	22
0	8220	818.071824940248	24
0	8236	819.26928580898	23
0	8238	819.658911416849	24
0	8246	820.775982538856	23
0	8251	820.805003332488	24
0	8258	821.986523577603	25
0	8262	822.185141741697	24
0	8272	823.063573273168	25
0	8277	823.439851125603	24
0	8288	824.844063477576	24
0	8306	826.203086016652	23
0	8320	827.219752960278	24
0	8327	828.474076344739	23
0	8330	828.709265587597	24
0	8347	830.247471356246	24
0	8365	832.193257473815	25
0	8366	832.199833510837	24
0	8376	834.283671969972	23
0	8379	834.554939352198	24
0	8393	835.758451841165	23
0	8406	836.848825665702	24
0	8408	836.972187233961	25
0	8412	837.108980280218	26
0	8413	837.16021635835	25
0	8428	838.480856181858	25
0	8436	839.865473478728	25
0	8447	841.9378344536	24
0	8463	842.690204148491	25
0	8464	842.869279232577	24
0	8469	843.031879855916	25
0	8486	844.763269438637	24
0	8496	846.115416841249	23
0	8510	848.061354786283	22
0	8516	848.684261253428	23
0	8526	849.591956738829	22
0	8535	850.87556826552	24
0	8546	851.30463894253	23
0	8565	852.581057514994	22
0	8579	853.936831552366	24
0	8580	854.19550825476	23
0	8592	855.306713712618	24
0	8597	855.504424394237	23
0	8610	856.94957516915	22
0	8625	858.565787965387	21
0	8628	858.64184734017	22
0	8645	859.754508610725	21
0	8662	862.064580818687	21
0	8664	862.166819618186	22
0	8676	863.112014934586	21
0	8686	863.990130778261	20
0	8704	865.333438625748	19
0	8707	865.338156251658	20
0	8725	866.319979519362	19
0	8739	867.790578213395	18
0	8744	868.339834856052	19
0	8751	868.772690290506	20
0	8752	868.802248187786	19
0	8755	868.959084083301	20
0	8766	870.153164009638	20
0	8769	870.250900519862	21
0	8776	871.142284017813	22
0	8789	872.471212038153	21
0	8795	873.685638763752	22
0	8799	874.210918584476	21
0	8808	875.921297713562	20
0	8817	877.609645077748	21
0	8824	878.060285995824	20
0	8837	879.534911702384	19
0	8844	880.421031651119	21
0	8861	881.25226316026	20
0	8872	883.041100216991	20
0	8877	883.258184333515	21
0	8879	883.260567751859	22
0	8891	884.412735916854	23
0	8892	884.494475885829	22
0	8895	884.669741417331	23
0	8901	885.546374977275	25
0	8906	886.073192471272	24
0	8916	887.047438034128	26
0	8923	887.314233682829	25
0	8946	888.437611845211	24
0	8956	889.17551499163	26
0	8962	889.417376452805	27
0	8966	890.367223318594	26
0	8978	891.541495428213	25
0	8990	893.390396392808	25
0	9001	894.228750361543	26
0	9008	894.552090282971	25
0	9014	895.071580079748	27
0	9018	895.247189978972	28
0	9026	896.321368161831	29
0	9028	896.411799671473	30
0	9033	896.686400863982	29
0	9045	897.403307484383	30
0	9048	897.799582310737	31
0	9056	898.263714898169	32
0	9057	898.31980842712	31
0	9069	900.016573141942	30
0	9078	900.659944100258	31
0	9090	901.668245723898	30
0	9098	902.751431385815	32
0	9105	903.149783622207	31
0	9115	904.310235187926	32
0	9118	904.413556755837	31
0	9125	904.783479844771	32
0	9130	905.419046443682	33
0	9137	906.553461342089	32
0	9147	908.650012936839	34
0	9148	908.668287897332	33
0	9166	910.103213263646	34
0	9167	910.195823674271	33
0	9187	911.778238869611	32
0	9189	911.839917096702	33
0	9204	913.852087302915	33
0	9209	914.291214437228	34
0	9219	915.886274512419	33
0	9230	917.070714261184	32
0	9239	917.750247063151	33
0	9241	917.842287884716	34
0	9246	917.91571706917	33
0	9266	919.19871057944	32
0	9274	920.594032971016	31
0	9277	921.013624184292	32
0	9291	921.701130188796	34
0	9298	922.227564099862	33
0	9317	924.489892027757	33
0	9330	925.678200680982	32
0	9342	926.517392025022	31
0	9354	927.244425775847	30
0	9370	928.48461823319	30
0	9382	930.121455558554	29
0	9387	930.30166505386	30
0	9395	931.644918081994	31
0	9397	932.215859627521	30
0	9404	932.673252046083	31
0	9406	932.709952491948	32
0	9412	933.704259685875	31
0	9421	934.038322930762	32
0	9429	934.831753831187	33
0	9434	935.070860134393	32
0	9449	936.422651963526	34
0	9455	937.155547978167	33
0	9467	938.289581046859	34
0	9468	938.758112223918	33
0	9470	938.866055727969	34
0	9484	940.117792049208	33
0	9493	941.005637047655	34
0	9497	941.679990459786	33
0	9517	943.60442287663	35
0	9518	943.862168453809	34
0	9533	945.532071887436	34
0	9542	946.011695688243	35
0	9549	946.573508332342	34
0	9561	948.203233272565	34
0	9574	949.43601432708	35
0	9577	949.540032109891	34
0	9591	951.113725253583	33
0	9596	951.444752075589	34
0	9600	951.577416260158	35
0	9616	952.728301826655	34
0	9630	954.64648570332	34
0	9646	956.041054385523	33
0	9656	957.728556361284	33
0	9666	959.050668716019	34
0	9675	959.648077889245	33
0	9686	960.696264100334	33
0	9702	962.154035558177	33
0	9715	963.527855108974	34
0	9721	963.859139647075	33
0	9724	964.122378574531	34
0	9739	965.589740603826	34
0	9747	967.219064110784	33
0	9760	968.75923967644	32
0	9773	970.609009827528	33
0	9777	970.699421706567	34
0	9778	970.725138938225	33
0	9794	972.142711595749	32
0	9797	972.176423732629	33
0	9807	973.950895596588	32
0	9818	975.888371992676	32
0	9831	976.965822217731	33
0	9835	977.157776398228	32
0	9838	977.25470567039	33
0	9851	979.135621934347	32
0	9855	979.44471676603	33
0	9872	980.653203357055	32
0	9886	982.217671081782	32
0	9903	983.687689016377	32
0	9909	985.449595227463	32
0	9917	986.7670697401	33
0	9922	987.522745214151	32
0	9932	987.978867137454	33
0	9935	988.533228905486	32
0	9948	989.352572611755	31
0	9951	989.425782727956	32
0	9965	990.707522820581	31
0	9973	991.641399856063	33
0	9975	991.729150911419	34
0	9981	992.771496269361	33
0	9989	992.929354708124	34
0	9991	993.075750435668	35
0	10001	993.314330834931	36
0	10002	993.682454955888	35
0	10017	994.537165128757	34
0	10032	996.523481288995	34
0	10046	997.985580980755	33
0	10063	999.319887914707	32
0	10070	999.462008664464	33
0	10074	999.817545620412	34
0	10086	1001.066161563188	35
0	10095	1001.644732416976	34
0	10108	1002.810334937918	35
0	10110	1003.10075279796	34
0	10120	1004.530338290767	33
0	10123	1004.970798138406	34
0	10130	1005.510096913914	36
0	10135	1006.75313358174	35
0	10140	1006.864842621888	36
0	10151	1008.128133997738	35
0	10161	1009.892771274338	34
0	10168	1010.343624793639	35
0	10174	1010.93003137923	36
0	10181	1011.919314486281	35
0	10186	1012.211169259794	36
0	10198	1013.97140725735	35
0	10205	1014.707990334956	36
0	10212	1014.967779549213	35
0	10224	1016.522755097564	35
0	10236	1017.940202019261	34
0	10247	1019.518832177828	33
0	10256	1020.675960728858	35
0	10262	1020.989556511874	36
0	10265	1021.214541631617	35
0	10270	1021.563082600488	36
0	10276	1022.62738668591	37
0	10281	1022.712868105092	36
0	10301	1025.072067744043	36
0	10314	1025.769673649052	37
0	10318	1026.047206531762	38
0	10322	1026.119219187232	39
0	10327	1026.467060869367	38
0	10337	1027.460045487287	40
0	10344	1028.16017791851	39
0	10359	1029.3100689423	38
0	10371	1029.875805801411	37
0	10378	1030.23120618933	38
0	10386	1030.903652420837	37
0	10398	1032.540332966838	37
0	10405	1033.973641713457	38
0	10409	1034.131317020261	37
0	10422	1036.474598175764	36
0	10437	1038.697757351107	35
0	10447	1039.827954582002	34
0	10462	1041.684387156714	34
0	10467	1042.182306637834	35
0	10476	1042.594739234878	37
0	10484	1043.062391147198	36
0	10487	1043.130882662454	37
0	10498	1044.410726475293	37
0	10505	1046.001972059774	37
0	10516	1047.61846916924	37
0	10525	1048.768984826815	37
0	10541	1049.773292576352	36
0	10554	1051.311751748942	35
0	10569	1053.17946696179	34
0	10581	1054.896964715558	33
0	10600	1057.142401464678	32
0	10614	1058.718608009677	31
0	10621	1059.094212346784	32
0	10633	1060.36711909342	32
0	10645	1061.609995290397	31
0	10656	1062.401794034632	31
0	10662	1063.370811449054	33
0	10668	1064.125018398159	32
0	10677	1064.787918982618	32
0	10693	1066.815283157484	32
0	10710	1067.709460370786	33
0	10712	1067.922496489967	32
0	10720	1068.788186953554	33
0	10726	1069.706537197346	32
0	10738	1070.678960950282	33
0	10743	1070.999405549095	32
0	10746	1071.141598115336	33
0	10750	1071.518801266079	34
0	10756	1072.213155274053	35
0	10758	1072.584208900621	34
0	10761	1072.659790237	35
0	10763	1072.792212806877	36
0	10780	1074.431520828115	37
0	10781	1074.438534213654	36
0	10796	1076.541532165188	36
0	10808	1078.316165064891	35
0	10820	1079.929581288963	34
0	10829	1080.102886742403	35
0	10834	1080.22165608765	34
0	10847	1081.022693697548	35
0	10854	1081.388899804229	34
0	10868	1082.557805338611	34
0	10873	1082.620135302944	35
0	10888	1084.166019319631	36
0	10889	1084.616296050248	35
0	10893	1084.98423828764	36
0	10907	1086.093871693283	35
0	10913	1086.701675021901	36
0	10923	1087.428712392129	35
0	10936	1089.276323891271	34
0	10939	1089.409409622962	35
0	10941	1089.748637875128	36
0	10963	1091.304286255379	36
0	10966	1091.489465544661	37
0	10984	1092.61072940447	36
0	10996	1094.242994461111	38
0	11000	1094.880436457313	37
0	11019	1096.805502576487	36
0	11031	1098.814889794319	36
0	11044	1099.361321667716	37
0	11049	1099.719034708238	36
0	11052	1099.774315624827	37
0	11060	1100.216008966684	38
0	11070	1101.663111203619	37
0	11079	1102.539201225422	38
0	11082	1102.878927132125	37
0	11099	1104.967169481149	37
0	11106	1105.165702046197	38
0	11119	1106.013232811117	39
0	11123	1106.453241795705	38
0	11133	1107.37634728336	40
0	11138	1108.640290467337	39
0	11151	1109.953026505362	38
0	11166	1110.999553887339	37
0	11181	1115.12875608057	38
0	11182	1115.219359350076	37
0	11198	1116.153926601327	38
0	11202	1116.569650359646	39
0	11203	1116.639402346701	38
0	11218	1117.792098644091	37
0	11227	1118.200152203734	38
0	11238	1119.128343503676	39
0	11239	1119.416512047913	38
0	11255	1120.720077752867	37
0	11264	1122.037667017968	36
0	11281	1123.44971616743	36
0	11296	1126.485451330858	36
0	11316	1127.694805808757	35
0	11330	1129.403503962829	36
0	11331	1129.504259276416	35
0	11334	1129.875544812798	36
0	11336	1129.886190488458	37
0	11348	1131.837195242881	37
0	11359	1133.066716455294	36
0	11372	1134.913346610607	35
0	11382	1135.671028646756	36
0	11384	1135.716734254322	37
0	11394	1136.215536132065	36
0	11411	1137.628260749441	35
0	11416	1137.993982882569	36
0	11419	1138.490941096107	37
0	11433	1139.283437756685	36
0	11440	1139.946399482687	37
0	11453	1140.65730191789	36
0	11460	1140.850235651729	37
0	11472	1141.998439227122	36
0	11483	1142.87278160084	37
0	11491	1143.226734003785	36
0	11508	1146.218693204992	35
0	11526	1148.838764636993	34
0	11543	1150.583789825299	33
0	11559	1151.697964344547	32
0	11562	1151.79837122939	33
0	11579	1153.013911323392	32
0	11594	1153.900512294472	33
0	11599	1154.61074556929	32
0	11611	1154.854155925027	31
0	11627	1156.521542897932	31
0	11633	1156.735877139766	32
0	11649	1157.95802690092	31
0	11659	1159.326770019499	30
0	11670	1160.64417595597	32
0	11672	1160.865427438706	33
0	11674	1161.158204905048	32
0	11688	1162.811688987285	31
0	11691	1163.518165706048	33
0	11696	1164.144293591309	34
0	11704	1164.964971148742	33
0	11712	1166.177870390268	32
0	11725	1169.273585549918	32
0	11728	1169.406846877386	33
0	11751	1170.681852987753	32
0	11756	1171.037889504399	33
0	11764	1172.310795238234	33
0	11777	1173.603525318763	34
0	11779	1174.028598223692	33
0	11794	1175.162854333713	32
0	11802	1176.115183435063	33
0	11811	1177.544922045917	32
0	11814	1177.84815722993	33
0	11840	1179.374562105162	33
0	11854	1181.235376822132	32
0	11865	1182.883366399748	31
0	11878	1184.886920591857	31
0	11894	1185.954846104367	30
0	11897	1186.218139471192	31
0	11904	1187.336473778993	33
0	11906	1187.406745224904	34
0	11909	1187.446592603366	35
0	11917	1188.345882100782	34
0	11928	1190.000870994407	33
0	11930	1190.152988852669	34
0	11935	1190.517421860045	36
0	11943	1191.695606529217	35
0	11960	1192.53315330964	34
0	11963	1192.579065717964	35
0	11974	1194.00301931462	34
0	11982	1195.287144289083	36
0	11988	1195.91138743325	35
0	12000	1197.711593168621	34
0	12003	1197.763478159988	35
0	12015	1199.574878545301	34
0	12028	1201.797527225613	34
0	12039	1203.576890458354	33
0	12042	1204.003066021262	34
0	12057	1206.599100638718	34
0	12076	1207.533575393934	33
0	12091	1209.298832434398	34
0	12092	1209.310799589194	33
0	12112	1210.212100123089	34
0	12115	1210.77008805726	33
0	12122	1212.951126286245	33
0	12125	1213.087156467786	34
0	12129	1214.010341374843	36
0	12141	1216.427977434507	35
0	12157	1217.838222292805	34
0	12173	1219.892701580404	34
0	12179	1220.551208687954	36
0	12181	1220.873282707334	37
0	12190	1221.960666054066	36
0	12206	1223.306996006346	35
0	12215	1224.423483325187	35
0	12232	1226.276812277307	34
0	12245	1227.867317717387	35
0	12248	1228.149815677593	34
0	12254	1228.984314429174	35
0	12265	1230.134992116931	34
0	12289	1233.060734276476	33
0	12302	1233.674822888324	34
0	12309	1233.980223396767	35
0	12321	1234.651564214499	34
0	12332	1236.227097567979	34
0	12347	1237.444032368429	36
0	12351	1237.565725058965	37
0	12353	1237.624111051564	38
0	12361	1238.435156488426	37
0	12373	1240.414424163316	36
0	12376	1240.657878380452	37
0	12383	1241.041046231055	39
0	12391	1241.396359681834	40
0	12404	1242.21156974588	39
0	12420	1243.354760138049	40
0	12423	1243.390609253512	39
0	12437	1244.78074463838	38
0	12446	1245.28046396318	39
0	12451	1245.963381071663	38
0	12458	1246.507950443153	39
0	12469	1247.654277446547	38
0	12484	1249.817876973502	38
0	12489	1251.12210428934	40
0	12494	1251.865919765264	39
0	12511	1252.951188139742	38
0	12534	1254.989253372612	38
0	12538	1255.150008522965	39
0	12543	1255.722003448099	40
0	12547	1256.231129941475	39
0	12555	1257.583702695256	39
0	12571	1259.648257176126	41
0	12572	1259.697207685486	40
0	12582	1260.320355618858	41
0	12586	1260.683393186843	40
0	12602	1262.256686393666	40
0	12613	1263.676879529532	39
0	12624	1265.333913912943	38
0	12630	1265.440450433451	39
0	12637	1266.424970998106	40
0	12642	1267.430084321173	39
0	12652	1267.961250158928	40
0	12653	1268.220747974057	39
0	12664	1269.394492625812	38
0	12672	1270.510264527674	39
0	12681	1271.561140556267	38
0	12703	1272.841476222023	37
0	12717	1273.241340036352	36
0	12738	1275.157836112306	36
0	12755	1276.567539034766	35
0	12758	1276.591311276164	36
0	12772	1277.791075630642	38
0	12775	1277.889188526057	37
0	12790	1279.357485906951	36
0	12802	1280.379458649098	37
0	12808	1280.967738559852	36
0	12820	1282.0053251246	37
0	12827	1282.667576401513	38
0	12830	1283.212516601907	39
0	12833	1283.253886816839	38
0	12843	1284.131497099997	39
0	12845	1284.533133565736	38
0	12856	1286.255400656737	37
0	12875	1288.168515999847	36
0	12890	1289.440982326287	37
0	12891	1289.477482122872	36
0	12902	1290.664629707638	35
0	12910	1291.741000389247	36
0	12912	1291.802706238812	35
0	12925	1292.907801666662	36
0	12927	1292.948005762081	37
0	12928	1293.290303749631	36
0	12946	1294.456221095085	35
0	12949	1294.638803869609	36
0	12958	1296.054162206568	37
0	12961	1296.209276278263	36
0	12972	1298.199810316612	36
0	12981	1300.166039471495	35
0	12999	1301.97478642309	34
0	13006	1302.365840972221	35
0	13020	1303.050631116357	35
0	13030	1304.728135801518	34
0	13037	1305.150499344737	35
0	13041	1305.632900562954	34
0	13056	1306.887842753865	33
0	13065	1307.506068261352	34
0	13069	1307.519770261755	35
0	13073	1307.676358859797	36
0	13075	1308.310473372447	35
0	13094	1309.477734258346	34
0	13106	1311.097754489279	33
0	13122	1312.712805585077	32
0	13131	1313.462450795299	34
0	13134	1313.67702622578	33
0	13144	1314.990163075464	34
0	13146	1315.151853319285	33
0	13160	1316.444161888884	32
0	13171	1317.945063087662	32
0	13183	1318.855551082001	33
0	13195	1320.002233754404	32
0	13202	1320.31933416559	33
0	13204	1320.539113722245	34
0	13216	1321.660186105083	33
0	13231	1323.26244125461	33
0	13243	1325.150980858561	32
0	13252	1326.101338229939	31
0	13266	1327.2461242657	32
0	13268	1327.2736610668	33
0	13272	1327.507045167153	32
0	13286	1328.640304061982	31
0	13293	1329.115803833687	32
0	13299	1329.822653969825	31
0	13311	1332.297305839573	30
0	13318	1332.5084891634	31
0	13328	1333.623355368687	30
0	13338	1335.399593038775	29
0	13343	1336.13149503351	30
0	13352	1337.538838589572	29
0	13371	1338.841162977722	28
0	13374	1339.014399559856	29
0	13382	1339.3417830881	30
0	13386	1339.437043544373	31
0	13389	1339.82167200227	32
0	13398	1340.107931674317	31
0	13407	1340.628829263411	32
0	13415	1341.067627753992	31
0	13431	1342.195163927833	30
0	13434	1342.372218882011	31
0	13448	1343.873643427235	31
0	13469	1345.812088215956	32
0	13471	1345.856635798958	31
0	13490	1347.622791536404	31
0	13493	1347.651163943813	32
0	13503	1348.626396021453	31
0	13511	1349.372758397926	32
0	13513	1349.402939369146	33
0	13520	1350.069842820907	34
0	13521	1350.214719112034	33
0	13532	1351.166163375628	32
0	13546	1353.046676925963	31
0	13552	1353.53298646618	32
0	13557	1354.695453399783	34
0	13560	1355.155618527756	33
0	13577	1356.279010699539	34
0	13581	1356.802848432119	33
0	13596	1358.088095981468	32
0	13601	1358.513976926745	33
0	13606	1359.011158776017	34
0	13620	1360.369642065129	33
0	13622	1360.487632139571	34
0	13634	1361.252511060249	35
0	13642	1362.205773964996	34
0	13652	1363.822438294174	33
0	13655	1363.940243609236	34
0	13673	1365.766020436693	34
0	13677	1366.435653867504	36
0	13683	1367.19698452217	35
0	13686	1367.442604209818	36
0	13694	1368.445231445214	35
0	13702	1369.019814382257	36
0	13710	1369.905467557822	35
0	13724	1371.209052916088	34
0	13730	1371.710956701407	36
0	13736	1372.078009356822	37
0	13741	1372.500247223493	38
0	13747	1373.174765053402	37
0	13750	1373.283194856484	38
0	13759	1373.916964567008	40
0	13763	1374.326275366729	39
0	13774	1375.110124447971	40
0	13776	1375.203408477208	41
0	13781	1375.56599886141	42
0	13785	1375.661466840844	43
0	13789	1376.117193486927	42
0	13802	1377.910073625018	41
0	13805	1378.249496434612	42
0	13808	1378.443991199846	44
0	13810	1378.494555173771	45
0	13819	1379.838003567022	44
0	13826	1380.310813530221	45
0	13839	1381.845006827948	44
0	13854	1383.210259933158	46
0	13856	1383.248502644603	47
0	13859	1383.307782338757	48
0	13861	1383.504914239425	49
0	13863	1383.576232062855	50
0	13869	1383.960214596876	49
0	13884	1384.788128810145	50
0	13889	1385.027402610829	49
0	13896	1385.650437220652	50
0	13902	1386.494766814662	49
0	13924	1388.135324374272	48
0	13945	1389.885139780519	47
0	13956	1390.950464164672	49
0	13965	1392.184853553909	48
0	13981	1393.224185600763	49
0	13982	1393.645615758544	48
0	13992	1395.061652308144	50
0	13996	1395.454383382161	49
0	14007	1395.947639081386	50
0	14011	1396.095761586591	51
0	14018	1396.309745713202	50
0	14034	1398.300738419169	49
0	14044	1399.548435843034	48
0	14058	1401.066000107494	47
0	14065	1401.271923277996	48
0	14075	1402.671454774217	47
0	14093	1403.92888789681	47
0	14096	1404.231419622402	48
0	14108	1405.329072666377	50
0	14109	1405.744642555621	49
0	14134	1408.055279152171	48
0	14143	1409.576761728149	48
0	14148	1409.689282601636	49
0	14152	1409.771427273182	50
0	14165	1410.940615315034	49
0	14174	1412.203513825749	49
0	14192	1413.320791282742	50
0	14193	1413.57955568309	49
0	14213	1414.719936802595	50
0	14214	1414.98870408172	49
0	14221	1415.112984970151	50
0	14233	1415.926130681385	49
0	14239	1416.613698303288	50
0	14245	1417.699290513122	49
0	14248	1417.982423366946	50
0	14253	1418.265327916755	52
0	14265	1419.748752823659	51
0	14280	1420.94160733688	52
0	14281	1420.97768323846	51
0	14300	1422.402630230017	50
0	14316	1424.064770136114	51
0	14318	1424.415648896229	52
0	14319	1424.517805716653	51
0	14324	1425.318633704671	52
0	14329	1425.614905773065	53
0	14331	1426.076088588888	52
0	14341	1427.004702786111	53
0	14346	1427.378179936307	54
0	14347	1427.390775050211	53
0	14357	1427.919517238334	52
0	14371	1429.083816842912	51
0	14378	1429.41895201527	52
0	14384	1430.402990530927	51
0	14402	1431.993816012504	50
0	14413	1432.808658983309	52
0	14419	1433.14812322747	53
0	14422	1433.312602419204	52
0	14427	1433.386642943037	53
0	14436	1433.86947481658	55
0	14446	1434.89443519455	54
0	14456	1436.844869802291	53
0	14466	1438.915469617451	53
0	14469	1438.984456330245	54
0	14481	1440.130408921875	55
0	14483	1440.203332859791	56
0	14491	1441.267595826683	57
0	14493	1441.591697110711	58
0	14494	1441.682213912817	57
0	14497	1441.879411575121	58
0	14507	1443.005107842321	57
0	14526	1444.556358404603	57
0	14537	1445.056496751026	58
0	14540	1445.351314796153	59
0	14543	1445.490543495195	58
0	14552	1445.59861739321	59
0	14556	1445.835652196387	60
0	14567	1446.630320643076	61
0	14571	1447.081392537309	60
0	14584	1448.059045555152	61
0	14596	1449.031101752969	60
0	14604	1449.714701281407	61
0	14608	1450.046798516646	60
0	14624	1451.802226814673	60
0	14636	1453.256231767678	62
0	14642	1453.855619118048	61
0	14646	1453.892382287335	62
0	14659	1455.796479433224	61
0	14679	1458.155317419609	61
0	14690	1459.224918104501	60
0	14703	1460.344224547666	59
0	14715	1461.111129949729	58
0	14731	1462.548603408297	57
0	14738	1464.248545679744	57
0	14753	1465.43470639614	56
0	14766	1465.788059577427	57
0	14771	1466.213711392678	58
0	14776	1466.327664930352	57
0	14781	1466.641241137461	58
0	14797	1468.248287037948	59
0	14800	1468.361827007543	58
0	14808	1469.425452830276	59
0	14810	1469.519037574148	60
0	14813	1469.862115040577	59
0	14820	1470.048042214186	60
0	14830	1471.19135428795	59
0	14835	1471.828001987587	60
0	14838	1472.190563072126	61
0	14847	1473.008035081892	60
0	14863	1474.802257534371	60
0	14872	1475.90752746727	59
0	14875	1476.160325236339	60
0	14882	1476.777968784819	62
0	14888	1477.381877636637	61
0	14904	1478.75905292359	60
0	14917	1480.002821140413	59
0	14930	1481.176156255385	58
0	14947	1482.997055843243	58
0	14964	1484.282321357812	58
0	14980	1485.664652097748	57
0	14995	1486.682709704719	56
0	14998	1486.766471574216	57
0	15000	1486.974188539126	58
0	15008	1488.303379293803	57
0	15024	1489.065313997726	58
0	15030	1490.017955933104	57
0	15034	1490.388436230197	58
0	15045	1490.747786095827	57
0	15061	1492.669942280012	56
0	15069	1494.848928689845	56
0	15078	1495.542887828772	57
0	15080	1495.550851701596	58
0	15085	1495.743187062498	59
0	15097	1496.951460632363	58
0	15104	1497.181511171961	59
0	15106	1497.314807290542	60
0	15109	1497.75749266312	61
0	15119	1498.695256486704	60
0	15137	1500.361577989798	59
0	15139	1500.422845642324	60
0	15147	1500.991550877541	61
0	15155	1501.490052657847	60
0	15175	1502.924558717399	61
0	15176	1503.02124362968	60
0	15195	1504.683577946354	60
0	15207	1505.935399841028	61
0	15213	1506.246543028807	60
0	15222	1507.363592737664	61
0	15225	1507.92944697994	60
0	15237	1508.790482403778	61
0	15241	1509.246593181764	60
0	15254	1510.444589109959	59
0	15261	1511.022191647451	60
0	15268	1512.320150524505	59
0	15288	1513.541459362201	59
0	15297	1514.547618280369	60
0	15307	1515.157837006955	59
0	15323	1516.823991253336	61
0	15324	1516.881424882659	60
0	15329	1517.338235709945	61
0	15335	1518.25826634668	62
0	15338	1518.329643259252	61
0	15348	1519.291261423145	63
0	15351	1519.620785663914	64
0	15356	1520.034191436045	65
0	15359	1520.510348486816	66
0	15360	1520.65624357547	65
0	15375	1522.701703721384	64
0	15391	1524.203434220386	64
0	15396	1524.619345321457	65
0	15400	1524.729551543653	66
0	15406	1525.072801274339	67
0	15411	1525.602985984569	66
0	15434	1527.391497936212	66
0	15453	1528.456211211956	66
0	15458	1528.874943974949	67
0	15463	1529.052944335777	68
0	15471	1530.385483147474	67
0	15489	1532.305860558681	67
0	15505	1533.74954098509	69
0	15509	1533.761463366046	70
0	15510	1534.018705352538	69
0	15518	1534.99302854418	71
0	15522	1535.360123097245	70
0	15538	1536.1420427292	69
0	15548	1537.26150187697	71
0	15553	1538.166554113663	70
0	15562	1538.688425975743	71
0	15568	1539.027896224199	72
0	15575	1539.320428364156	71
0	15587	1540.235365409059	72
0	15593	1540.853905477698	71
0	15601	1541.367799947947	73
0	15609	1542.758960754914	74
0	15612	1543.036545239744	73
0	15615	1543.084227428986	74
0	15623	1544.212563873801	76
0	15627	1544.277304062252	77
0	15634	1545.317242034394	76
0	15641	1545.914093238582	77
0	15643	1546.097061367951	78
0	15645	1546.133163878689	79
0	15651	1546.487262553409	78
0	15659	1547.749292998902	80
0	15665	1548.617236025313	79
0	15678	1550.382850269075	78
0	15685	1550.626267470006	79
0	15693	1551.258153404488	80
0	15700	1551.864012366942	81
0	15704	1552.448964040421	80
0	15722	1553.87180193425	79
0	15732	1554.852977764647	80
0	15737	1555.256915416783	79
0	15763	1556.853433149284	79
0	15770	1557.12761296817	80
0	15778	1558.127132754451	79
0	15789	1560.198241770322	78
0	15794	1560.446421319785	79
0	15805	1560.707740276099	78
0	15815	1561.864213718439	79
0	15819	1562.024614894744	78
0	15835	1563.444488655011	77
0	15849	1565.192470846215	76
0	15858	1565.757937164948	77
0	15866	1566.220492797721	76
0	15878	1567.888288089606	76
0	15891	1569.184078298906	75
0	15904	1570.581172724229	74
0	15913	1571.07136540337	75
0	15917	1571.34307829234	76
0	15923	1571.709229895678	75
0	15930	1572.123442386337	76
0	15939	1572.349715315184	75
0	15955	1573.668635390058	75
0	15960	1573.836026840419	76
0	15968	1575.258471415962	75
0	15980	1576.870304167664	74
0	15986	1577.337569357502	75
0	15992	1577.709111094263	74
0	16006	1579.338838206505	76
0	16008	1579.438901208146	77
0	16010	1579.559254273179	78
0	16017	1579.774890062618	79
0	16018	1580.048641410055	78
0	16033	1581.457605481945	77
0	16043	1583.299197509582	77
0	16054	1585.327167377144	76
0	16059	1585.56624624547	77
0	16074	1586.903232556564	77
0	16092	1587.957105096963	79
0	16093	1588.23492804787	78
0	16105	1590.193374231039	78
0	16116	1591.170753106888	77
0	16119	1591.568369475543	78
0	16129	1592.91197440249	78
0	16140	1594.35282021605	77
0	16145	1594.97577624629	78
0	16153	1595.867640886208	77
0	16166	1596.934518255254	76
0	16192	1598.805373692711	77
0	16193	1598.966838009842	76
0	16201	1599.676329990906	77
0	16208	1600.493266083991	76
0	16215	1600.775160644431	77
0	16222	1601.524649676791	76
0	16234	1602.572635067224	78
0	16242	1603.506395118526	77
0	16259	1604.979231913526	76
0	16275	1606.696039666625	76
0	16284	1608.311317271586	78
0	16285	1608.455533436366	77
0	16293	1609.007583017957	78
0	16296	1609.092513865355	79
0	16304	1609.989306128411	78
0	16312	1611.931984780509	77
0	16327	1613.585822970757	77
0	16350	1615.006886219126	78
0	16353	1615.080441043347	77
0	16370	1616.289633317897	76
0	16378	1617.440936593738	78
0	16380	1617.841007606749	77
0	16387	1618.268477717434	78
0	16391	1618.395905158993	79
0	16403	1619.748394286377	78
0	16412	1620.206961813051	79
0	16414	1620.427027115602	80
0	16421	1621.524390841895	79
0	16431	1622.395279641893	80
0	16438	1622.973815534661	81
0	16439	1622.975176340701	80
0	16454	1624.392549960509	79
0	16475	1626.122534019465	78
0	16484	1626.428262351714	79
0	16492	1627.204071672542	78
0	16508	1628.860723300272	78
0	16526	1630.382894983829	78
0	16539	1632.223618492887	77
0	16545	1633.020451865219	79
0	16551	1633.891434974256	78
0	16559	1634.45543663733	80
0	16567	1635.027998834854	79
0	16572	1635.35346164983	80
0	16575	1635.59148041934	82
0	16587	1636.630112418368	81
0	16601	1637.566289461349	82
0	16608	1638.535046983806	81
0	16617	1639.956000707586	80
0	16642	1641.295008945158	79
0	16657	1643.594063434413	78
0	16671	1645.295163128546	79
0	16672	1645.456472776904	78
0	16675	1645.772338265795	79
0	16689	1646.492364572738	81
0	16691	1646.600812709232	82
0	16695	1647.184274782437	81
0	16709	1647.83489821346	82
0	16713	1648.066393668394	83
0	16714	1648.157009476078	82
0	16732	1649.869333145152	82
0	16743	1650.980409329189	81
0	16758	1652.190617628828	81
0	16769	1653.115750447299	80
0	16777	1653.515643399183	81
0	16783	1654.31672085641	80
0	16799	1655.120421165788	81
0	16801	1655.335439083327	82
0	16809	1656.472254775795	81
0	16821	1657.673677997807	82
0	16823	1657.933813117528	81
0	16840	1659.693336332089	80
0	16844	1660.381609674546	82
0	16848	1660.514873021461	83
0	16850	1660.63967186898	84
0	16859	1661.120134118276	85
0	16862	1661.351722137071	86
0	16868	1661.916592693301	85
0	16882	1662.961933654615	86
0	16884	1662.986410864124	87
0	16885	1663.04784014784	86
0	16903	1663.881023359007	85
0	16910	1664.310570113804	86
0	16920	1665.482410437758	86
0	16942	1667.425763938439	86
0	16956	1669.037161464223	85
0	16972	1670.058988831617	84
0	16975	1670.271135936852	85
0	16988	1671.291947163614	84
0	17000	1672.346745518425	86
0	17006	1673.147386753977	87
0	17010	1673.278599917427	88
0	17015	1673.518403957785	87
0	17019	1673.842634760663	88
0	17025	1675.28484593059	87
0	17034	1675.863196427582	88
0	17048	1677.036210322257	87
0	17067	1678.482144656265	86
0	17070	1679.096493507485	88
0	17081	1680.247489025154	87
0	17094	1681.055005050079	86
0	17109	1682.250816876999	85
0	17123	1683.737500797406	85
0	17137	1685.250197996588	84
0	17151	1686.71344443929	84
0	17166	1687.86582336109	84
0	17192	1689.644960351495	86
0	17193	1689.660572329449	85
0	17198	1689.775127373985	86
0	17211	1691.083311267947	85
0	17229	1692.190391207484	84
0	17240	1692.549338611822	85
0	17252	1693.519105232844	85
0	17254	1693.745034645633	86
0	17256	1693.762422232704	87
0	17265	1695.614722751426	86
0	17277	1696.877109881189	85
0	17295	1698.551546409948	84
0	17310	1699.709250083254	83
0	17321	1701.406206069155	82
0	17327	1702.066264346201	83
0	17336	1702.50421811718	82
0	17354	1704.067539286859	82
0	17365	1705.289563911615	81
0	17379	1706.252427047103	80
0	17390	1706.770772577315	81
0	17393	1707.399451543196	80
0	17404	1707.757688300075	81
0	17411	1708.509790294967	82
0	17412	1708.637650775752	81
0	17431	1710.335041224168	81
0	17440	1711.702136693584	80
0	17454	1712.36711124086	79
0	17466	1713.258943461255	81
0	17482	1714.492499819903	82
0	17485	1714.66656736445	81
0	17497	1715.541800429792	80
0	17511	1717.482026731103	80
0	17516	1718.028307372845	81
0	17523	1718.782166094275	80
0	17542	1720.807307743256	79
0	17553	1722.303269300066	78
0	17563	1723.989433701608	77
0	17568	1724.088599842765	78
0	17581	1725.239325185481	77
0	17601	1727.434493920283	76
0	17615	1729.326214134716	76
0	17624	1731.012426521951	76
0	17639	1733.225184276111	75
0	17648	1734.217079490529	74
0	17660	1735.715626746935	73
0	17668	1737.518737256081	72
0	17679	1738.575249123638	71
0	17695	1739.642732969391	70
0	17706	1742.12083975437	70
0	17713	1743.557198479206	69
0	17724	1743.69913913555	70
0	17731	1744.178865299354	69
0	17740	1744.83012315814	70
0	17748	1745.987491288506	69
0	17758	1747.262795349483	68
0	17776	1749.186124126258	67
0	17778	1749.567546179268	68
0	17781	1749.958619738903	70
0	17792	1750.863385214151	69
0	17795	1751.046633028251	70
0	17803	1751.369914831477	71
0	17811	1751.694992984678	72
0	17821	1752.821273340472	73
0	17824	1753.005764438619	72
0	17835	1754.253195892111	71
0	17855	1756.38283873056	71
0	17864	1757.084510972422	72
0	17872	1757.929030932381	71
0	17878	1758.713054538103	72
0	17888	1759.400632512275	71
0	17906	1760.856004222561	71
0	17929	1762.859089256442	70
0	17931	1762.996114651399	71
0	17933	1763.138422225552	72
0	17937	1764.118884130483	74
0	17942	1764.563242136615	75
0	17946	1764.743727104876	76
0	17948	1764.93345947525	77
0	17949	1765.082005161264	76
0	17958	1767.239528518113	76
0	17967	1768.744228674226	75
0	17978	1769.937187636219	74
0	17985	1770.127329939386	75
0	17987	1770.202253404125	76
0	17996	1770.76516777348	75
0	18018	1772.427118937332	74
0	18027	1773.492754207052	73
0	18038	1774.129790453059	74
0	18047	1776.09153832144	75
0	18049	1776.093877244026	76
0	18052	1776.883269691083	75
0	18063	1778.150730694809	76
0	18065	1778.410007896744	77
0	18071	1778.819388280823	76
0	18084	1780.209511824287	75
0	18096	1782.159246536548	74
0	18110	1783.705887862296	74
0	18117	1783.992173813991	75
0	18123	1784.260369857427	76
0	18130	1785.125703581205	75
0	18150	1786.885900257937	75
0	18162	1787.743203178223	76
0	18164	1788.14787267188	75
0	18171	1788.345869653975	76
0	18187	1789.609312227544	75
0	18191	1789.977210504634	76
0	18211	1791.6468074921	76
0	18214	1792.186801465539	78
0	18226	1793.21294068858	77
0	18237	1794.920331500543	77
0	18249	1796.746209164301	79
0	18250	1796.860630812757	78
0	18264	1798.451598324096	78
0	18276	1800.07014080937	77
0	18287	1801.62595742661	78
0	18291	1801.819706517712	79
0	18295	1802.248630975038	80
0	18296	1802.266007900112	79
0	18304	1802.838836178026	80
0	18307	1803.835266209051	79
0	18312	1804.18104369123	80
0	18323	1805.470352294388	79
0	18331	1807.032909024625	78
0	18342	1812.582521441811	78
0	18345	1812.585875483343	79
0	18363	1815.271121299247	78
0	18368	1815.524718194089	79
0	18378	1816.368108957589	78
0	18398	1818.041635806409	78
0	18410	1820.015110020705	77
0	18418	1820.9776784251	78
0	18429	1824.637456953458	77
0	18449	1825.645987130236	76
0	18466	1827.04541714221	75
0	18482	1828.926254934112	75
0	18501	1830.8898185895	75
0	18513	1832.530070498359	74
0	18520	1833.12118437328	75
0	18527	1834.286382094227	74
0	18539	1834.843344924579	75
0	18541	1835.038537719248	74
0	18546	1835.313554674491	75
0	18554	1837.031020202029	75
0	18568	1838.723309504674	74
0	18577	1839.617444990541	75
0	18581	1839.963725079486	74
0	18593	1840.706376470647	73
0	18600	1840.870173016661	74
0	18602	1841.065199086545	75
0	18609	1841.232621089891	74
0	18615	1841.903732032934	75
0	18622	1843.143852217224	74
0	18624	1843.287979852952	75
0	18632	1843.918695442814	76
0	18639	1844.605276996267	77
0	18643	1844.869882638	76
0	18650	1845.345922125268	77
0	18657	1845.894786646839	78
0	18661	1845.94089714292	79
0	18664	1846.229405540391	78
0	18671	1846.817499411065	79
0	18683	1847.997063396517	80
0	18685	1848.044600537745	81
0	18688	1848.542426621903	82
0	18689	1848.68415847286	81
0	18701	1849.957977126145	80
0	18704	1849.963013469876	81
0	18706	1850.147627028705	82
0	18719	1851.978644775809	82
0	18726	1853.116589405593	83
0	18731	1853.863695808433	82
0	18747	1855.126569783411	83
0	18754	1855.717292971781	82
0	18773	1857.137911736384	82
0	18792	1858.991554412981	83
0	18793	1859.039223174714	82
0	18803	1860.359872931939	81
0	18806	1860.555774275014	82
0	18810	1860.885055806939	83
0	18820	1862.103906007444	82
0	18835	1863.917212280833	81
0	18847	1865.459526913955	80
0	18856	1867.570487301246	80
0	18875	1869.049132759671	79
0	18888	1870.900159003173	78
0	18899	1871.867896818659	77
0	18914	1873.003321365584	77
0	18925	1873.403551267004	78
0	18927	1873.477380199657	79
0	18929	1874.001805531743	78
0	18949	1875.461385251426	77
0	18952	1875.922927465233	78
0	18964	1876.855590190653	78
0	18976	1878.747095610364	77
0	18989	1880.194818049624	77
0	18999	1881.781486164246	77
0	19014	1883.871413999183	77
0	19017	1884.520969690207	79
0	19026	1885.225314137234	80
0	19030	1885.557369596882	79
0	19035	1885.976531069613	80
0	19037	1886.010707330423	81
0	19052	1887.490680006264	81
0	19065	1889.13480736706	82
0	19066	1889.295692650839	81
0	19074	1890.028140391864	82
0	19080	1890.674947698255	81
0	19089	1891.322232385379	82
0	19099	1892.759858076745	81
0	19102	1892.936323381632	82
0	19113	1893.782508467523	83
0	19119	1894.254192857547	82
0	19127	1895.081178257874	83
0	19129	1895.129187884451	84
0	19131	1895.262550336062	85
0	19134	1895.946427602762	84
0	19139	1896.197462264119	85
0	19148	1897.592539926242	84
0	19157	1898.944575847418	86
0	19160	1899.216584426855	87
0	19162	1899.270296613316	88
0	19166	1899.616816844252	89
0	19169	1899.774373838494	88
0	19178	1900.488936836229	89
0	19183	1901.248720430553	88
0	19193	1902.996756750452	88
0	19206	1904.851255419407	87
0	19215	1906.274505688492	88
0	19225	1906.921112355745	89
0	19226	1907.053485081171	88
0	19233	1907.553844780018	89
0	19237	1907.679091836895	90
0	19244	1908.265372626955	89
0	19255	1909.535765238143	88
0	19258	1909.854887246544	89
0	19270	1910.377096740786	90
0	19279	1911.121072906908	89
0	19288	1911.844042887412	90
0	19298	1912.389150952595	89
0	19301	1912.760473436487	90
0	19313	1913.390894984221	90
0	19324	1914.346093786218	89
0	19334	1915.276003172437	90
0	19344	1916.458240421873	89
0	19357	1918.788772441535	88
0	19362	1919.106857239084	89
0	19372	1920.798572937222	88
0	19385	1922.607199069801	90
0	19388	1922.610513603234	89
0	19391	1922.919995176422	90
0	19406	1923.849969487343	91
0	19407	1924.090201924235	90
0	19416	1924.954542506134	91
0	19426	1925.957582148553	90
0	19438	1927.012953019224	91
0	19444	1927.13816385717	92
0	19451	1927.643195784911	91
0	19458	1928.065231736253	92
0	19460	1928.251799465787	93
0	19472	1929.225718734317	92
0	19477	1929.509302045129	93
0	19490	1930.876525063903	92
0	19493	1931.1353874682	93
0	19509	1932.872224060985	92
0	19522	1933.335375987845	93
0	19528	1933.989965338005	92
0	19539	1935.37355650341	94
0	19544	1936.442191310609	93
0	19562	1937.945534504866	93
0	19570	1940.261978125673	93
0	19584	1941.685269003425	92
0	19588	1942.211325960091	94
0	19597	1943.791143522226	95
0	19598	1943.834008850363	94
0	19615	1945.650697946317	94
0	19630	1946.990000154424	93
0	19640	1948.192285614731	92
0	19651	1949.230780851413	92
0	19661	1950.226043801761	94
0	19663	1950.40314234547	95
0	19669	1950.527582285363	96
0	19673	1950.963864313282	95
0	19678	1951.165645644693	96
0	19686	1952.539309909096	98
0	19691	1952.599417443705	97
0	19696	1952.75631265252	98
0	19711	1954.003977155866	97
0	19720	1955.663046961362	96
0	19728	1956.300172302274	98
0	19732	1956.62120923097	99
0	19739	1957.436208293433	98
0	19742	1957.474666475453	99
0	19760	1959.444289345787	100
0	19761	1959.541977813869	99
0	19769	1959.797441994868	100
0	19775	1960.68121156535	99
0	19791	1962.244429104964	98
0	19804	1963.343307781421	98
0	19815	1964.729014863157	97
0	19830	1965.716518968025	96
0	19833	1966.052996026899	97
0	19840	1966.561629172347	99
0	19851	1967.289084661545	98
0	19859	1968.644103300281	97
0	19868	1969.086470878781	98
0	19880	1970.542081628211	97
0	19895	1971.952288936586	98
0	19896	1972.206520844227	97
0	19910	1973.391420450475	96
0	19922	1974.03371556514	97
0	19928	1974.753828422964	96
0	19940	1975.881982858479	95
0	19943	1976.289394306486	96
0	19955	1977.846940780401	97
0	19956	1978.319260833072	96
0	19958	1978.545450743264	97
0	19964	1978.824496344145	98
0	19977	1980.03814938607	97
0	19993	1981.702810488133	96
0	20002	1983.07614312089	96
0	20014	1984.565497340593	96
0	20023	1985.4883845163	95
0	20034	1985.733500427051	96
0	20048	1987.343770768802	95
0	20059	1988.409221506585	96
0	20064	1988.633006608454	95
0	20078	1989.90680072698	94
0	20087	1992.133408539446	94
0	20110	1993.320724660243	93
0	20123	1994.550790242609	92
0	20125	1994.655930135921	93
0	20130	1995.389665011151	95
0	20132	1995.425378581453	96
0	20135	1995.762252643859	97
0	20142	1996.909725865492	96
0	20149	1997.173540218198	97
0	20151	1997.374096294232	98
0	20158	1997.874572664313	97
0	20170	1998.986040310019	96
0	20177	1999.524526239933	97
0	20184	2000.379503446487	96
0	20196	2001.755037848869	97
0	20199	2002.201599016465	96
0	20214	2003.190134347711	96
0	20217	2003.462496266712	97
0	20221	2003.640329570604	98
0	20230	2004.500618926334	100
0	20233	2004.886610177154	99
0	20245	2006.381469118133	98
0	20254	2007.152302212637	99
0	20257	2007.406403291429	100
0	20262	2007.653667034206	99
0	20277	2009.431141806998	99
0	20285	2010.464247678589	101
0	20288	2010.951823275145	102
0	20289	2011.112797781236	101
0	20292	2011.169380326468	102
0	20304	2012.616076457716	101
0	20317	2013.978779063334	100
0	20321	2014.048627606358	101
0	20328	2014.818452146761	102
0	20332	2015.595152131753	101
0	20344	2016.843710211691	101
0	20361	2018.871669128749	101
0	20369	2019.646019975052	102
0	20376	2020.930534321192	101
0	20381	2021.5062723472	103
0	20387	2021.779300572735	104
0	20397	2023.338865492778	103
0	20401	2023.840048122376	105
0	20408	2025.750747473435	104
0	20421	2026.956665400965	103
0	20431	2028.136016884008	102
0	20444	2029.504592056083	103
0	20450	2029.924005356868	102
0	20469	2031.448915140231	101
0	20474	2031.778010505365	102
0	20485	2032.683808858607	103
0	20487	2032.838417499973	102
0	20504	2034.126766471525	101
0	20510	2035.180944632525	103
0	20514	2035.758128214408	102
0	20537	2036.580951394086	103
0	20539	2036.602071997266	104
0	20541	2036.902850613159	105
0	20542	2036.91065315812	104
0	20559	2038.160354481458	103
0	20566	2038.476425542031	104
0	20579	2040.088276784404	103
0	20591	2040.609903453431	104
0	20595	2041.671284537605	105
0	20596	2041.688777097166	104
0	20609	2043.191020436766	106
0	20619	2043.46158921618	105
0	20630	2044.286687578147	106
0	20637	2045.085945538534	105
0	20653	2046.674467655933	104
0	20664	2047.944721268637	105
0	20665	2047.952843975178	104
0	20676	2048.783697478114	103
0	20687	2050.034867276168	102
0	20697	2051.204153289335	101
0	20706	2053.119036197018	100
0	20711	2053.47241477413	101
0	20721	2054.078533419793	101
0	20739	2058.755156371608	101
0	20754	2061.281260984843	100
0	20761	2061.767830228747	101
0	20771	2063.407874184864	100
0	20774	2063.629335057454	101
0	20779	2063.923886853552	103
0	20795	2065.002455588143	104
0	20796	2065.058040952577	103
0	20806	2066.643711311231	102
0	20817	2067.602758520413	103
0	20824	2068.567928618011	102
0	20835	2069.140014238331	103
0	20840	2069.684977456955	104
0	20842	2069.845536630967	105
0	20846	2069.915644408243	106
0	20851	2070.504821848868	107
0	20852	2070.515425966355	106
0	20860	2072.190211972859	105
0	20866	2072.882802670619	106
0	20879	2073.324131845266	105
0	20888	2074.389772062033	107
0	20894	2075.385479103824	106
0	20907	2077.6173310358	106
0	20928	2079.046678994775	105
0	20942	2080.89968734671	105
0	20960	2082.068522423965	107
0	20963	2082.590869128958	106
0	20966	2082.626369345841	107
0	20980	2083.387387988369	108
0	20982	2083.634791956751	109
0	20986	2083.963772678046	108
0	20995	2084.512964113825	109
0	21008	2085.636083718394	108
0	21020	2086.827061522133	107
0	21029	2088.158927294184	106
0	21043	2089.718555909172	107
0	21045	2089.814603261159	108
0	21049	2090.010907327423	107
0	21054	2090.013289101981	108
0	21056	2090.016424062637	109
0	21070	2091.802082222768	109
0	21075	2091.989436492811	110
0	21095	2093.780607231735	109
0	21104	2094.756033122413	110
0	21109	2095.405934270509	109
0	21115	2095.738617188338	110
0	21125	2096.654556763822	109
0	21141	2098.269003795332	108
0	21155	2098.996168942499	109
0	21161	2100.218948879454	108
0	21168	2101.420502420091	107
0	21180	2102.758774876927	106
0	21188	2103.980869902334	105
0	21203	2105.705532313887	105
0	21210	2105.981914119514	106
0	21215	2106.36837127395	107
0	21223	2106.985003882224	108
0	21227	2107.143822725827	109
0	21228	2107.151705277443	108
0	21248	2108.854728910049	108
0	21262	2110.468769786735	107
0	21275	2112.457730332937	106
0	21294	2114.093404803063	105
0	21299	2114.313885162833	106
0	21312	2115.145907085747	108
0	21317	2115.614336143227	107
0	21328	2116.649836431155	106
0	21331	2116.753316741145	107
0	21339	2117.257081036308	108
0	21348	2117.76767388241	107
0	21354	2118.514914925761	109
0	21371	2119.917150967629	108
0	21385	2121.002147686837	110
0	21388	2121.464554392458	109
0	21391	2121.787204022444	110
0	21404	2122.764733205428	110
0	21420	2123.911483476423	111
0	21421	2124.026282256116	110
0	21433	2125.373333195504	110
0	21442	2125.830054540583	111
0	21444	2125.858380708711	112
0	21447	2126.229070300497	113
0	21453	2126.855660960336	112
0	21467	2129.501295696817	111
0	21481	2130.406407970486	112
0	21483	2130.440953145075	113
0	21487	2130.714398418498	114
0	21488	2130.997100773621	113
0	21493	2131.304110704794	114
0	21499	2131.421198838063	115
0	21501	2131.422052563433	116
0	21507	2132.552370799982	115
0	21516	2133.074721145528	114
0	21527	2134.162477764015	115
0	21539	2136.236041436956	114
0	21548	2137.405225836395	116
0	21551	2137.79896013853	117
0	21561	2139.655603904906	116
0	21579	2140.586181451121	117
0	21582	2141.248924706514	116
0	21604	2142.752225778159	115
0	21615	2143.384305011349	116
0	21622	2143.885321965907	115
0	21625	2144.212132483683	116
0	21644	2145.424297069556	116
0	21646	2145.448594565085	117
0	21657	2146.770180007575	116
0	21666	2148.913574978867	116
0	21677	2149.951982874249	115
0	21693	2152.043528738626	114
0	21696	2152.045151498786	115
0	21709	2153.911965189464	114
0	21723	2155.359470778404	114
0	21737	2156.565922950751	115
0	21739	2156.881489060991	114
0	21753	2158.906792049224	114
0	21769	2161.251840817547	113
0	21787	2162.786714387287	112
0	21799	2166.778264690707	111
0	21810	2167.368595792075	112
0	21819	2168.254202703764	113
0	21823	2168.318544886638	114
0	21824	2168.44629313213	113
0	21831	2169.384021738179	115
0	21838	2169.66121665222	114
0	21850	2172.008900783793	113
0	21859	2173.295650598139	112
0	21875	2174.289269141329	114
0	21883	2175.041384644735	113
0	21898	2176.357896287457	113
0	21909	2176.68981859324	114
0	21920	2178.136624206551	113
0	21922	2178.167417314461	114
0	21936	2179.317823435509	115
0	21943	2179.874602370221	116
0	21948	2180.077549621688	115
0	21962	2181.147944464441	114
0	21967	2181.438588422556	115
0	21986	2183.290877568509	114
0	21998	2183.874266611017	115
0	22006	2184.504919829332	114
0	22017	2185.408786793051	113
0	22020	2185.486556338411	114
0	22033	2186.840046555452	113
0	22037	2186.996712766303	114
0	22057	2187.927434887588	115
0	22060	2188.1230656911	114
0	22068	2189.062438819542	115
0	22075	2189.70059502828	116
0	22076	2190.124222746622	115
0	22086	2191.288185855834	114
0	22091	2191.48968904246	115
0	22104	2193.091663194327	114
0	22130	2194.767745848147	114
0	22140	2196.192817775733	113
0	22150	2197.438896834035	114
0	22156	2197.891691159574	113
0	22171	2199.458993026398	114
0	22172	2199.52912260565	113
0	22181	2200.184649827706	114
0	22183	2200.201957610083	115
0	22190	2200.760661420985	116
0	22193	2201.225120113767	115
0	22211	2202.609032209787	117
0	22214	2202.976272653842	116
0	22228	2204.55876997774	115
0	22235	2205.12877170444	117
0	22246	2206.149789946497	116
0	22256	2207.491024370791	115
0	22268	2208.493918989549	116
0	22274	2209.084372137328	115
0	22293	2210.741959265211	115
0	22314	2212.812511992262	114
0	22328	2214.108784964708	114
0	22344	2215.001069160393	115
0	22350	2215.361245384145	116
0	22355	2215.53962303896	115
0	22366	2216.776876423693	116
0	22370	2217.014741371681	115
0	22389	2217.984861026036	114
0	22396	2218.519005680185	115
0	22402	2219.398383102817	116
0	22405	2219.458701387783	115
0	22422	2220.925731361689	116
0	22423	2220.98777924325	115
0	22438	2222.491684883058	114
0	22451	2223.86717977765	113
0	22466	2224.827568552891	112
0	22480	2225.735313856656	113
0	22486	2226.416963265386	112
0	22498	2227.669483326797	111
0	22517	2229.764329455942	110
0	22520	2229.925572751003	111
0	22532	2231.051635017281	113
0	22539	2231.782439873089	112
0	22558	2233.287811716693	113
0	22559	2233.331874876188	112
0	22566	2234.018532642588	113
0	22573	2234.65117091041	114
0	22576	2234.79455147891	113
0	22595	2236.723853021246	112
0	22604	2237.704286945723	111
0	22609	2237.980671808578	112
0	22611	2238.044994642852	113
0	22613	2238.067778294635	114
0	22619	2239.086239817136	113
0	22631	2240.287391552048	115
0	22634	2240.507247513649	116
0	22640	2241.456520372845	115
0	22654	2243.043751988204	115
0	22669	2243.946942029685	114
0	22676	2244.15709941599	115
0	22688	2245.332376988582	114
0	22694	2245.63732405656	115
0	22701	2246.701739717637	114
0	22719	2248.678030249469	113
0	22722	2248.734706858383	114
0	22736	2250.508827749646	113
0	22741	2250.927261393645	114
0	22754	2252.011175165063	114
0	22760	2252.727730860743	116
0	22767	2253.450879032096	115
0	22785	2255.090044134014	116
0	22787	2255.54120409656	115
0	22806	2256.974714354894	114
0	22822	2258.593166451042	113
0	22836	2260.152523248107	113
0	22843	2260.409480193661	114
0	22852	2261.365654616735	113
0	22862	2262.191948888764	114
0	22866	2262.438039046646	113
0	22882	2264.376706054282	112
0	22902	2266.098617535261	112
0	22907	2266.152219680983	113
0	22917	2266.946616767622	112
0	22928	2268.310101654715	114
0	22937	2269.093320408301	113
0	22948	2269.492729461569	114
0	22950	2269.591766219704	115
0	22957	2270.713454983446	114
0	22967	2271.548107017261	113
0	22978	2272.178212781264	114
0	22996	2273.217403228039	113
0	23005	2274.580026928851	112
0	23008	2274.714333726756	113
0	23022	2276.145493538545	112
0	23031	2277.094218040696	111
0	23034	2277.219855484229	112
0	23036	2277.310945235117	113
0	23048	2278.62956200142	112
0	23067	2280.432829776788	111
0	23083	2281.451310983967	110
0	23097	2283.124430734459	109
0	23106	2283.757885300139	110
0	23113	2284.476413375732	111
0	23114	2284.563225877433	110
0	23133	2285.762037201545	110
0	23145	2287.252916139205	109
0	23156	2289.036498238384	109
0	23163	2289.52775568148	110
0	23170	2290.560549434289	111
0	23173	2290.648863259388	110
0	23180	2291.177901718521	111
0	23189	2292.482444026393	110
0	23194	2292.989356986502	111
0	23205	2294.421120013097	110
0	23227	2295.578231633367	109
0	23245	2296.794450486397	110
0	23251	2296.877441319403	109
0	23263	2297.814968388014	110
0	23267	2298.22955247677	109
0	23277	2299.071423969753	108
0	23290	2301.145930055996	108
0	23295	2301.486219747129	109
0	23301	2302.253032763322	108
0	23315	2303.458512522631	109
0	23318	2303.8196462473	110
0	23320	2303.877049781479	111
0	23321	2304.129080288931	110
0	23328	2304.904267507806	112
0	23332	2305.436776766901	111
0	23339	2306.030222059258	112
0	23349	2307.311376756955	113
0	23352	2307.66048847301	112
0	23368	2308.865313005257	112
0	23371	2309.294902368846	113
0	23381	2310.292234987367	113
0	23394	2311.272153943807	112
0	23408	2312.095920398556	113
0	23414	2313.047465848323	112
0	23420	2313.340114762929	113
0	23427	2314.15373698066	114
0	23437	2314.714876845316	113
0	23440	2314.749411574354	114
0	23456	2315.760183752297	115
0	23458	2316.089970577442	114
0	23463	2316.350301047079	115
0	23482	2317.789797087114	114
0	23501	2318.474749869863	115
0	23511	2319.673714167253	114
0	23516	2320.144751251756	115
0	23525	2320.830267459888	116
0	23527	2321.178570431452	115
0	23534	2321.35378814656	116
0	23552	2323.199305025731	115
0	23559	2324.810808626999	114
0	23574	2326.022420000782	113
0	23594	2327.616918779041	112
0	23615	2329.25685857874	111
0	23627	2329.98463906637	110
0	23642	2330.945862994799	109
0	23647	2331.178072971314	110
0	23657	2332.618382293941	109
0	23665	2333.909874022039	110
0	23672	2334.616401212595	109
0	23687	2335.519219414686	110
0	23689	2335.623019199726	111
0	23693	2336.042845225	110
0	23709	2337.078689458142	109
0	23727	2338.624961852397	108
0	23742	2340.272262152374	107
0	23753	2340.926118137038	108
0	23759	2341.597913863317	107
0	23771	2342.546011354951	106
0	23774	2342.775499878544	107
0	23786	2344.220817446175	106
0	23794	2345.224557518404	108
0	23797	2345.287926873623	109
0	23799	2345.605797089797	110
0	23803	2345.936223741454	109
0	23808	2346.018104479114	110
0	23823	2347.167889952447	109
0	23834	2347.641521453288	110
0	23838	2348.146511732181	109
0	23855	2349.073132242726	109
0	23869	2349.878753867604	108
0	23888	2351.093245965342	109
0	23891	2351.542285570634	110
0	23892	2351.567737937597	109
0	23905	2352.877247650285	108
0	23913	2354.143511093989	109
0	23918	2354.680278006073	108
0	23929	2355.64584103217	109
0	23933	2355.811906202308	108
0	23945	2356.402844346358	110
0	23951	2356.984389922922	109
0	23958	2357.579375962209	110
0	23965	2357.893160299118	109
0	23986	2359.333702057412	108
0	23994	2359.9901007051	109
0	24001	2360.831070832794	108
0	24006	2361.09312099201	109
0	24025	2362.315841486129	109
0	24037	2364.009263786922	111
0	24040	2364.161028116288	110
0	24051	2365.293569082539	109
0	24059	2366.132585228107	111
0	24066	2366.49613984911	110
0	24083	2367.556047064934	109
0	24098	2368.558404023734	108
0	24107	2369.385685806756	109
0	24109	2369.461103151911	110
0	24114	2369.747702547583	111
0	24117	2370.053076038696	110
0	24135	2372.174695843432	109
0	24152	2373.790995966483	109
0	24159	2374.192300220491	110
0	24170	2375.156153518182	109
0	24174	2375.540830509274	110
0	24185	2376.818347565983	109
0	24193	2377.192574453204	110
0	24203	2377.998469093726	109
0	24208	2378.217100870806	110
0	24227	2379.513334346615	109
0	24236	2379.622445691736	110
0	24250	2380.705816159684	110
0	24263	2381.533679729215	110
0	24271	2382.713262922629	110
0	24290	2384.478430972935	111
0	24294	2384.654821555252	112
0	24295	2384.67788721821	111
0	24312	2385.280522930575	112
0	24313	2385.310034473486	111
0	24330	2386.524679269247	110
0	24348	2387.968265476377	109
0	24359	2389.875177912606	108
0	24376	2391.048457090854	107
0	24388	2393.175101829307	107
0	24403	2394.105672970902	106
0	24413	2395.745262163924	107
0	24416	2395.931019493187	106
0	24419	2396.338706759208	107
0	24431	2398.132322523852	107
0	24445	2399.692737586512	107
0	24456	2400.910214164586	108
0	24458	2401.726483431724	107
0	24460	2402.003067879351	108
0	24467	2402.326532725908	110
0	24472	2402.936294333585	111
0	24475	2403.371280294108	112
0	24476	2403.5905538479	111
0	24487	2403.945972352815	112
0	24495	2404.623751460318	111
0	24510	2406.116213907004	112
0	24514	2406.470397666233	113
0	24515	2406.495389261087	112
0	24520	2407.128637572225	113
0	24522	2407.341929740994	114
0	24526	2407.672074063956	113
0	24540	2408.751027387978	114
0	24548	2409.35705553933	113
0	24559	2410.428521275896	112
0	24573	2411.681364561356	111
0	24584	2413.258050523057	110
0	24592	2414.081650767229	111
0	24597	2414.795874009792	112
0	24600	2414.917583641714	111
0	24613	2416.107203551884	111
0	24629	2417.248112326288	111
0	24643	2418.911373506061	111
0	24659	2420.703906331381	110
0	24662	2420.818797637754	111
0	24666	2421.917099796658	113
0	24668	2422.089755125758	114
0	24673	2422.803626618064	113
0	24679	2423.37391896726	115
0	24685	2424.144756226242	114
0	24690	2424.459648580389	115
0	24707	2425.641839840643	114
0	24721	2427.012533178079	113
0	24728	2427.732073700763	114
0	24732	2428.193332909198	115
0	24736	2428.491517629489	114
0	24749	2430.133804560982	115
0	24751	2430.193891524763	114
0	24758	2430.400864444087	115
0	24766	2431.955145198563	114
0	24775	2432.685198326636	115
0	24780	2432.935369901874	116
0	24782	2432.971600665605	117
0	24787	2433.859675108144	116
0	24797	2434.875978786422	115
0	24811	2436.097780568291	116
0	24814	2436.603944345249	117
0	24815	2436.678563918231	116
0	24828	2438.592014336468	115
0	24831	2439.028807624078	116
0	24834	2439.231661237156	118
0	24843	2440.577017331947	117
0	24848	2440.904534364328	118
0	24856	2442.344989944619	117
0	24871	2444.648529977631	116
0	24886	2446.401448063812	115
0	24892	2447.014248986871	116
0	24897	2447.754635462297	115
0	24904	2447.891901133866	116
0	24916	2449.279028652717	115
0	24927	2450.462497131646	114
0	24930	2450.490357086892	115
0	24940	2450.745087578474	116
0	24947	2451.3444005098	117
0	24952	2451.697397995957	116
0	24964	2453.692009876755	115
0	24977	2454.518050874653	116
0	24979	2454.829230941654	115
0	24993	2455.370213802761	114
[...]
16	25414	2495.441035907506	652.05775966768
16	25430	2497.288597064347	651.80472225899
16	25452	2498.515935370799	338.69685857988
16	25466	2499.724216317829	339.48540753617
16	25499	2503.177972688568	655.68108434096
16	25521	2505.021496913012	338.13890719697
16	25537	2506.838745874983	337.30209703634
16	25553	2507.700991025601	337.41439830068
16	25573	2508.934106042185	335.10175884302
16	25591	2510.697281902409	336.85785889696
16	25629	2512.950554715677	337.24763018313
16	25652	2514.618340563925	338.39905840165
16	25664	2516.238395904238	339.81976912496
16	25699	2518.832619178417	341.84788966572
16	25721	2520.246216391746	341.22620416658
16	25748	2523.091100669315	341.3138494472
16	25759	2524.122737037702	1186.0666012177
16	25774	2525.480770566674	1186.2943651745
16	25788	2527.043635304712	342.61018239716
16	25806	2529.251945755007	344.64634378989
16	25817	2530.491720067997	344.09461962995
16	25859	2533.554362649324	343.18158847221
16	25876	2534.970347453272	962.3841368963
16	25892	2536.567030529398	341.80272013748
16	25926	2539.501410904435	657.50133981728
16	25977	2546.696201696086	342.71540498571
16	26018	2550.468556090284	344.85705975266
16	26031	2551.470671574943	664.79467627922
16	26055	2553.300654272027	666.24109965683
16	26072	2554.792969352673	346.46040396777
16	26099	2557.170883946364	346.63360572211
16	26127	2560.694497257336	348.92497180351
16	26164	2563.685244722696	350.33348046162
16	26209	2567.735203197995	350.49130925102
16	26218	2568.954939893224	351.54735504999
16	26267	2573.913098045902	354.05540629387
16	26282	2575.372464941887	354.478636117
16	26290	2576.612563679803	354.40070771056
16	26313	2579.374323183514	677.40712364597
16	26341	2582.646887118473	976.93547711001
16	26355	2583.96200489369	357.43826802459
16	26400	2589.018983087085	356.82039351841
16	26455	2594.662658644611	355.54268506273
16	26469	2596.948070374742	353.77721145377
16	26487	2598.636742654404	676.30391473259
16	26504	2600.387973788697	355.98045915174
16	26522	2601.188623948777	353.83311743617
16	26536	2602.78185418468	355.00096773148
16	26574	2606.873257130585	977.94625951694
16	26584	2607.523621966353	353.85677338305
16	26603	2609.004082101974	355.04109214221
16	26660	2613.929020312186	358.20354966649
16	26670	2615.241737031775	358.68936966376
16	26703	2618.652277053329	681.81275183705
16	26729	2620.533293162238	362.5964511495
16	26755	2623.500448633707	363.22462393626
16	26772	2624.741908058562	362.63411332134
16	26874	2635.520382986175	362.78004442317
16	26899	2637.467132798013	1605.2946223548
16	26927	2639.57590275544	359.45777768465
16	26938	2640.354936344364	673.65585628905
16	26951	2642.151108975565	361.03646024865
16	26968	2643.471142002698	674.28965506232
16	26981	2645.201821950901	361.14737270483
16	26994	2646.178053737179	361.02504299221
16	27009	2647.392299862536	361.37394504591
16	27110	2658.693037341344	685.6854878211
16	27119	2659.675343811973	367.67049201156
16	27135	2660.833061342029	686.51532986842
16	27171	2664.623595037838	369.45410853241
16	27205	2668.304707439104	371.47602541135
16	27223	2669.492486815722	690.47406624411
16	27242	2670.754304896298	371.34487617356
16	27285	2673.716726249788	690.22253125262
16	27322	2677.546759194125	369.89601137251
16	27337	2678.625353404929	370.16048057966
16	27348	2679.318128100023	1248.2532806546
16	27387	2683.031184193314	370.63475553193
16	27399	2684.040808330861	1009.5508767433
16	27450	2689.561262566606	372.66026691573
16	27466	2691.418458328171	1260.1253285171
16	27482	2692.749990268786	369.95217141189
16	27494	2694.108343723002	695.02241065198
16	27509	2696.034628635243	1011.2810459768
16	27519	2697.63255010658	371.46714537472
16	27545	2700.515583236048	696.67090378828
16	27563	2702.145760825173	370.58705821244
16	27610	2705.505368104712	372.98649864578
16	27625	2706.286422853452	1014.7133966607
16	27648	2707.483721197217	372.66429727097
16	27667	2709.041560820813	373.15171964846
16	27704	2711.954461599715	373.24766150334
16	27720	2713.657327370787	1262.7034190722
16	27739	2715.737923346324	374.89987460118
16	27765	2717.652264832199	375.13814333584
16	27791	2720.339297502109	1021.7963817925
16	27806	2721.592450747467	375.73244233248
16	27830	2722.892921250106	373.69749087917
16	27883	2727.465026357125	1021.03931879
16	27928	2731.38232824711	375.58306395
16	27942	2731.971205694332	375.89688578413
16	27957	2733.04736906951	376.76674921286
16	27986	2736.573563759173	378.06860952472
16	28012	2739.323428553094	378.1746009192
16	28026	2741.35172042395	379.12717768637
16	28063	2744.013255482428	378.95525555154
16	28083	2745.904451705445	380.58657204368
16	28105	2747.716770948829	381.02258038632
16	28121	2749.081668469493	381.53566544695
16	28140	2750.644643843356	382.49655728273
16	28163	2752.605547405593	710.62365953897
16	28181	2753.769927392651	383.52616257798
16	28209	2756.749730423599	385.7620792405
16	28245	2760.591732879934	1021.8955809101
16	28262	2761.883383708914	384.97598349981
16	28277	2763.696035838953	386.43914508967
16	28323	2767.443637368364	387.76643930534
16	28341	2768.599387070665	703.61740352421
16	28374	2771.628901247601	386.61347192505
16	28407	2775.043690253941	708.02398880886
16	28424	2776.870903170964	391.51367197717
16	28496	2782.215427186883	394.8918947007
16	28512	2784.115443704808	393.94883822906
16	28535	2785.617231362781	394.63366822622
16	28551	2787.111040832568	395.22095524788
16	28573	2790.587220734869	393.95198612859
16	28593	2792.21053950334	395.35175765522
16	28636	2795.716660840948	395.24745905601
16	28653	2797.639097330242	395.51203011196
16	28671	2799.153357014688	721.57491017487
16	28681	2800.932911325048	1296.7098422789
16	28698	2802.625999469955	393.89640193988
16	28713	2804.096531541997	395.11438037384
16	28730	2805.44554505441	396.39085191045
16	28748	2807.64397091909	398.33664320272
16	28765	2809.020712350128	399.26662665722
16	28776	2810.117711938385	398.96850241185
16	28824	2813.693894707827	731.71533876439
16	28837	2814.84761575629	398.70030343715
16	28854	2816.113542142743	399.77514148284
16	28895	2819.426740513161	399.79570321182
16	28908	2820.393523789735	730.44942382143
16	28937	2822.461802530184	730.52118890083
16	28965	2825.465255738655	400.16174804628
16	28982	2827.732032414069	732.07814587231
16	28995	2828.567052782654	731.53662646833
16	29024	2830.989437271952	733.38230936695
16	29033	2831.967545634628	394.46672408907
16	29048	2833.631482920062	395.05703234528
16	29075	2836.972823093171	397.30898145748
16	29113	2839.522760663726	1734.2434058727
16	29137	2841.705668120494	391.05574899516
16	29169	2845.396157499778	737.93908335861
16	29186	2846.539331623799	392.73200720503
16	29212	2849.482921483163	394.10628827079
16	29240	2852.515970200685	396.29488557832
16	29283	2856.058879117298	1064.9239963609
16	29313	2859.223577657885	739.77737882759
16	29358	2863.223554791686	395.58361882988
16	29373	2864.341079722634	395.48524716308
16	29402	2867.915252253467	397.3431827458
16	29428	2869.598447500631	1052.6894496217
16	29437	2870.878007595122	397.86592652996
16	29460	2872.529268245033	398.92339361217
16	29502	2877.33414482279	740.84130897994
16	29517	2878.463450591311	401.70721479472
16	29551	2881.771754142097	402.75880094238
16	29566	2883.348130916408	402.18919774647
16	29586	2884.427227835136	400.65471176951
16	29650	2891.817413098593	402.04267724826
16	29661	2892.966089897489	751.28003051524
16	29678	2894.377266929535	403.64577232131
16	29705	2897.207718512611	754.75044120869
16	29716	2898.463895079596	1063.1569426546
16	29730	2899.469641276484	406.54878720477
16	29747	2900.972507228555	406.90231171116
16	29772	2903.582585590347	405.64835181562
16	29789	2904.848436292579	403.31401694584
16	29806	2905.963590731409	1349.9516407685
16	29821	2907.28583139372	405.03186412531
16	29852	2910.004820136045	405.49076656219
16	29903	2915.172840836959	406.41838869668
16	29929	2918.823152463603	408.91074987212
16	29957	2921.653038147853	409.93257184026
16	29967	2923.355515060512	1070.2423952953
16	29986	2924.575204807464	412.40099280308
16	30014	2926.747255335391	410.51934267447
16	30030	2928.080425995995	1071.7279909799
16	30044	2929.498714127267	412.06110082601
16	30090	2934.52027740162	406.5659320624
16	30114	2937.005474153595	408.20654110522
16	30128	2938.999050479961	409.90032708309
16	30157	2941.055085257097	410.04439541264
16	30174	2942.397360939649	1371.0155506539
16	30195	2944.747770699039	411.59117267167
16	30223	2946.877899820335	749.40707088795
16	30260	2949.843957387126	748.1882153378
16	30274	2951.438683752327	410.17389601409
16	30301	2955.671197960799	411.55334465637
16	30352	2960.337188652547	411.31774648789
16	30393	2963.571258276055	412.74459119732
16	30455	2968.878701400562	759.86809353416
16	30503	2973.333180656067	1377.864080179
16	30513	2974.978284684123	414.11223269492
16	30536	2977.219023781855	415.90564591005
16	30572	2980.462743664631	767.21286182344
16	30592	2982.361490135948	417.8365595281
16	30608	2983.679720359513	418.75771490304
16	30650	2987.424750375816	420.64076785067
16	30671	2988.754707055622	421.16147036915
16	30746	2994.639915736757	425.1792151711
16	30768	2995.879078930512	778.35648221233
16	30782	2996.595848273937	425.13076927057
16	30793	2997.557878734218	425.12960006327
16	30851	3002.593217776932	780.32417221171
16	30901	3006.007300392397	777.61916452923
16	30918	3007.27753302045	1097.4188490934
16	30955	3011.720379781191	417.96229271853
16	30974	3013.770884549294	418.14798669045
16	30992	3014.788886339166	418.39305583221
16	31015	3018.595694947945	419.17036271454
16	31030	3019.854220031516	419.12824990928
16	31042	3021.646813173114	420.88044501277
16	31071	3024.705659174816	421.26389289311
16	31082	3026.477182114025	422.97787507032
16	31095	3027.433069592302	423.81668222426
16	31107	3028.582078781799	423.99678443246
16	31128	3029.823191456456	778.56144871492
16	31153	3031.520655609705	425.30754772829
16	31188	3035.124167288951	427.2675364743
16	31238	3040.85094330125	429.19976394505
16	31278	3046.548082218462	431.18973756735
16	31295	3047.909475745838	790.99505555612
16	31376	3055.932559339312	435.78358648803
16	31394	3057.915456449965	436.55581309227
16	31411	3059.673599778675	799.41183161874
16	31466	3064.340978341346	435.08009990987
16	31480	3065.173603343158	796.32080770153
16	31495	3066.794755692853	435.28181914574
16	31513	3068.706380795599	799.416141439
16	31523	3069.228113334794	437.28008907378
16	31549	3073.134696410169	437.85886480987
16	31559	3074.122847493145	438.21886970293
16	31577	3075.662275225809	439.17392744477
16	31587	3076.611888149764	440.11403168077
16	31621	3078.76621103621	440.93867768839
16	31642	3080.840355747096	440.16905860295
16	31663	3082.344989530901	439.62280391647
16	31697	3086.073970642411	438.35076594694
16	31716	3086.925235249176	1116.7836816294
16	31791	3093.270930804713	441.99979186765
16	31804	3094.265502367097	441.94107019322
16	31816	3095.394612347017	443.02834538263
16	31829	3096.655621501888	808.204527852
16	31848	3098.118653976858	809.37709959861
16	31863	3099.648652791045	808.76416984408
16	31879	3100.476060219608	441.94982970289
16	31908	3103.736776293083	443.1259258232
16	31919	3105.533511452996	444.41497334229
16	31961	3109.681649814369	816.33138548982
16	32003	3114.236938908827	1136.9471811646
16	32019	3115.571736529215	447.33543339202
16	32038	3116.608583024306	447.8928585709
16	32076	3119.839600524237	1138.6124326411
16	32092	3120.623441644106	447.25338593751
16	32109	3122.66126407584	816.74462808466
16	32151	3125.76624234889	447.63821209604
16	32186	3128.337067305329	447.72213419461
16	32208	3129.9568605527	1137.228874334
16	32221	3131.3517099024	446.12147989309
16	32244	3134.217654825748	817.37044302634
16	32254	3135.769632135078	446.80778345154
16	32265	3137.165471143891	446.50766424801
16	32280	3138.318005097672	447.64681569231
16	32301	3139.671682976336	448.05829412131
16	32355	3144.978877074755	816.36391893625
16	32371	3146.098845564763	444.74431904682
16	32389	3147.802399170003	445.50278001021
16	32404	3149.496620785234	446.39212296364
16	32418	3150.869922641311	447.72621281022
16	32442	3153.407188923812	449.62200012993
16	32451	3154.840599268561	822.69643195762
16	32468	3156.055518008091	451.35339833372
16	32481	3157.548420616757	451.17277652873
16	32501	3160.548015419912	451.24358001478
16	32516	3161.455034985783	451.62037053691
16	32572	3165.602232268099	451.55701677105
16	32584	3167.289639545837	450.8788030869
16	32595	3168.435719038659	450.83738922629
16	32610	3170.093866032279	451.47524144504
16	32625	3170.954603765594	827.93283004539
16	32636	3172.101899429507	450.70929967035
16	32653	3174.206281621026	452.73732666532
16	32676	3175.934769541502	454.26451377756
16	32693	3177.920408940841	456.20318139497
16	32705	3179.219091059874	455.71468655903
16	32721	3180.579596040003	829.01075846749
16	32743	3182.141025240828	457.70050017587
16	32754	3184.072457978097	0.716506707703
16	32782	3186.288463827015	460.19533541238
16	32792	3186.716416213765	1483.1627440519
16	32819	3189.209181300686	462.13662885828
16	32830	3190.563331109561	461.535529618
16	32843	3191.418522067284	1163.1639787957
16	32861	3192.544198256491	463.08931349083
16	32869	3192.636643451172	0.012643688753
16	32886	3195.198255071954	0.004078109211
16	32891	3195.853375552158	840.47746102279
16	32924	3197.801293385005	466.97059003619
16	32935	3198.771709989435	467.64198687015
16	32970	3201.540429268891	468.75042884952
16	32980	3202.596560298551	468.77838929738
16	32997	3203.832597271642	846.22397214775
16	33009	3205.51841907305	470.17772449086
16	33038	3210.034597087871	470.5735671508
16	33069	3213.697064890881	1177.7253891263
16	33081	3214.10458437647	470.97735458463
16	33098	3215.256442560326	472.03717233664
16	33127	3218.761211492221	473.09965992695
16	33171	3224.169810122024	474.10770070818
16	33180	3225.083030709079	474.5980648135
16	33219	3227.75917637953	1182.6336643753
16	33234	3229.130399123485	472.35125910817
16	33245	3231.469156933881	0.914787899954
16	33249	3231.933531816102	859.61636400949
16	33263	3232.864403809824	473.10904927641
16	33286	3234.790509047258	474.31263929153
16	33346	3241.44734535446	476.83526099905
16	33357	3242.408071899147	477.4360714331
16	33375	3243.930033558909	864.38765876239
16	33390	3245.050148506894	860.76459744605
16	33419	3248.168608799188	473.89102828036
16	33433	3249.884545475923	473.3100332824
16	33519	3258.689735004661	871.96829120691
16	33540	3262.16736894269	478.49960053947
16	33551	3263.337445722496	479.15752711772
16	33566	3264.883330116476	480.22376865878
16	33580	3265.813512177986	478.83166787513
16	33595	3266.86145142727	478.04253282445
16	33605	3268.732956431612	0.663538893592
16	33681	3277.153744283381	482.71441322938
16	33711	3280.059027797708	0.94952135598
16	33739	3282.985078032673	486.41817417934
16	33771	3285.892035452407	484.06968315143
16	33793	3287.447729621819	485.56827101487
16	33816	3288.835713026402	485.65949879909
16	33834	3290.367421113294	486.73452572932
16	33856	3292.319099031251	488.09310452468
16	33873	3293.443984357588	487.99377909684
16	33915	3297.09398743935	1215.3350893071
16	33929	3298.198122739903	485.84551833738
16	33947	3299.728125123539	486.69910655395
16	33962	3301.485017896244	488.26410032386
16	33979	3303.041827022269	488.81390289419
16	33996	3304.391048968779	486.46784810139
16	34039	3308.06932155159	489.90130227944
16	34101	3314.325941219211	493.1171160305
16	34117	3316.388901472025	494.4816147507
16	34157	3319.463672072729	496.63432603545
16	34211	3325.472815625313	494.49791537105
16	34229	3326.456838303881	1227.7972761146
16	34266	3329.847604515185	882.22605521616
16	34285	3331.473607023868	880.47173194363
16	34308	3332.725669483948	486.39689820519
16	34325	3334.604897938094	486.66265107859
16	34378	3339.19904861952	488.02903144493
16	34391	3340.690406702581	882.40704929604
16	34427	3343.833826844409	487.77618816063
16	34477	3348.796532043161	885.6125799993
16	34495	3350.140443342678	485.28032790028
16	34506	3351.247083031316	485.38278433504
16	34515	3352.285569027896	882.54561454458
16	34531	3354.040220782337	485.86038652012
16	34608	3360.415958484989	884.33635479022
16	34694	3367.575229288967	1826.7675861862
16	34708	3368.323741789851	487.94569781607
16	34739	3370.882890110566	885.91945629706
16	34756	3372.707747951737	485.51157069165
16	34831	3379.573374842036	486.45614895335
16	34843	3380.707675478152	487.55201839005
16	34870	3383.231648651205	487.21515328466
16	34894	3384.502743495452	488.27971797788
16	34925	3387.624887653426	487.27403492858
16	34954	3390.112940538325	486.12243087959
16	34974	3391.8798232052	486.28268400651
16	35006	3395.147380262276	486.62914089532
16	35028	3396.711885200697	893.98582440458
16	35090	3403.018830923948	895.78002102079
16	35121	3406.668293851982	494.06266080635
16	35159	3410.383861593956	901.91439784585
16	35184	3412.761659502262	498.06337106356
16	35205	3415.841082720511	496.58528344798
16	35277	3424.071414295705	497.61527814504
16	35289	3425.163324748633	906.39923449394
16	35302	3426.855768269427	1569.0786986795
16	35323	3428.669108227294	493.22452465576
16	35370	3433.244945784599	491.29817137459
16	35391	3435.128289182916	492.33735508919
16	35408	3436.217438355045	493.10102075868
16	35433	3438.816030797725	493.94214053548
16	35465	3442.718219782156	496.47963915747
16	35501	3445.652952975877	497.50066474553
16	35514	3446.730681270826	498.31123238725
16	35535	3448.190917141564	497.3957482928
16	35570	3451.412138834121	499.14684898861
16	35586	3453.078817075604	500.09775912518
16	35601	3454.174291676351	2281.8315945221
16	35635	3458.02359250605	503.94915116146
16	35666	3461.168272804683	1257.5638359184
16	35683	3463.065864745321	504.39850548559
16	35704	3464.417904356104	1259.7383077338
16	35713	3465.91421652812	506.43350856621
16	35731	3467.694754336035	506.32261739155
16	35767	3471.020976218792	920.35475248905
16	35786	3473.107552362812	509.55829231266
16	35803	3474.52671139862	509.31580159006
16	35840	3478.151024521289	512.7965419634
16	35856	3480.106696896057	514.16035082321
16	35864	3481.534662389578	927.90002517081
16	35883	3482.857358706953	514.24525257918
16	35910	3484.553001670001	927.83610206
16	35930	3486.426667771763	928.08189126299
16	35945	3487.425238083925	926.21299774814
16	35978	3489.902040298874	927.6769723426
16	35999	3491.484586713074	511.98115549574
16	36066	3498.699152338874	512.39903439442
16	36113	3502.738922829384	512.69390755223
16	36128	3504.109963912072	936.41134450352
16	36168	3507.393203379444	516.47756742752
16	36178	3508.35062316292	516.00334291111
16	36207	3511.803490518417	944.0941902884
16	36222	3513.115906577512	519.19471513682
16	36237	3514.260280828322	519.55979592007
16	36272	3517.471572650004	520.88598291347
16	36280	3518.64203828467	520.55227412018
16	36292	3519.21678503949	520.68048357171
16	36323	3522.587412336519	944.84039203934
16	36347	3525.828684509536	523.17323692849
16	36362	3527.19373945052	523.71768723706
16	36374	3527.943331314245	1302.4677745408
16	36388	3528.814629943129	524.40777474227
16	36402	3530.640528466216	524.76495312115
16	36418	3531.307220565409	1619.9038571908
16	36452	3533.738551406401	519.52557799935
16	36478	3536.014064964728	518.95119539884
16	36500	3537.899393555432	518.99242511218
16	36513	3538.660029347923	517.30597904186
16	36549	3540.917056733041	938.83758933819
16	36617	3547.791967244597	517.60037208481
16	36647	3551.365789295154	520.91593492331
16	36656	3552.292564088419	520.61803046966
16	36710	3558.106626092031	524.4358330992
16	36728	3559.487877865496	1624.7559116883
16	36743	3561.382841596449	524.12283252935
16	36810	3567.542530980718	1311.9138530634
16	36824	3568.747963127239	954.82517482042
16	36858	3571.932324802785	953.04308283493
16	36888	3575.058659297707	521.74746641548
16	36909	3576.441014502442	523.03793856721
16	36923	3577.201702501538	957.88691963437
16	36940	3578.505141753841	523.02931473012
16	37000	3583.858355637104	524.73440636642
16	37012	3585.08455954512	524.19799586572
16	37028	3586.776639665693	525.53874610409
16	37037	3588.408216738247	1320.5888283059
16	37078	3591.84068955855	1639.2266795155
16	37109	3595.006433862096	1633.9265220605

