version 2
run Net1-0-20200210-09:06:26-1661
attr configname Net1
attr datetime 20200210-09:06:26
attr experiment Net1
attr inifile omnetpp.ini
attr iterationvars ""
attr iterationvarsf ""
attr measurement ""
attr network Net
attr processid 1661
attr repetition 0
attr replication #0
attr resultdir results
attr runnumber 0
attr seedset 0
param **.gen.interArrivalTime1 exponential(0.49s)
param **.gen.interArrivalTime2 exponential(0.54s)
param **.gen.interArrivalTime3 exponential(0.47s)
param **.gen.interArrivalTime4 exponential(0.48s)
param **.gen.interArrivalTime5 exponential(0.52s)
param **.sys.serviceTime1 exponential(0.6s)
param **.sys.serviceTime2 exponential(0.3s)
param **.sys.serviceTime3 exponential(0.2s)
param **.sys.serviceTime4 exponential(0.4s)
param **.sys.serviceTime5 exponential(0.5s)
param **.sys.timeSlot 0.5s
param **.gen.numberofSchedulingClasses 5
param **.sys.numberofSchedulingClasses 5

vector 0 Net.sys busy:vector ETV
attr interpolationmode sample-hold
attr title "server busy state, vector"
vector 1 Net.sys qlen2:vector ETV
attr interpolationmode sample-hold
attr title "queue length, vector"
vector 2 Net.sys qlen0:vector ETV
attr interpolationmode sample-hold
attr title "queue length, vector"
vector 3 Net.sys queueingTime2:vector ETV
attr interpolationmode none
attr title "queueing time at dequeue, vector"
attr unit s
vector 4 Net.sys responseTime2:vector ETV
attr interpolationmode none
attr title "response time at end of service, vector"
attr unit s
vector 5 Net.sink lifetime:vector ETV
attr interpolationmode none
attr title "lifetime of arrived msg, vector"
attr unit s
vector 6 Net.sink arrivedMsg:vector ETV
attr interpolationmode none
attr title "number of arrived msg, vector"
vector 7 Net.sys qlen4:vector ETV
attr interpolationmode sample-hold
attr title "queue length, vector"
vector 8 Net.sys queueingTime4:vector ETV
attr interpolationmode none
attr title "queueing time at dequeue, vector"
attr unit s
vector 9 Net.sys responseTime4:vector ETV
attr interpolationmode none
attr title "response time at end of service, vector"
attr unit s
vector 10 Net.sys qlen3:vector ETV
attr interpolationmode sample-hold
attr title "queue length, vector"
vector 11 Net.sys queueingTime0:vector ETV
attr interpolationmode none
attr title "queueing time at dequeue, vector"
attr unit s
vector 12 Net.sys responseTime0:vector ETV
attr interpolationmode none
attr title "response time at end of service, vector"
attr unit s
vector 13 Net.sys queueingTime3:vector ETV
attr interpolationmode none
attr title "queueing time at dequeue, vector"
attr unit s
vector 14 Net.sys qlen1:vector ETV
attr interpolationmode sample-hold
attr title "queue length, vector"
vector 15 Net.sys responseTime3:vector ETV
attr interpolationmode none
attr title "response time at end of service, vector"
attr unit s
vector 16 Net.sys queueingTime1:vector ETV
attr interpolationmode none
attr title "queueing time at dequeue, vector"
attr unit s
vector 17 Net.sys responseTime1:vector ETV
attr interpolationmode none
attr title "response time at end of service, vector"
attr unit s
0	0	0	0
0	2	0	0
0	4	0.374061017146	0
0	5	0.5	0
0	7	0.796384399733	0
0	13	1.5	0
0	15	2.236160341995	0
0	18	2.335972924821	0
0	20	2.830629092002	0
0	22	3	0
0	24	3.25666531138	1
0	26	3.597025632744	0
0	29	3.784248781632	0
0	33	4.176579569569	0
0	35	4.5	0
0	37	5.035030801456	0
0	40	5.261201184036	0
0	44	5.740587473738	0
0	47	6.12988926965	0
0	49	6.5	0
0	51	6.819209955602	0
0	52	7	0
0	53	7.5	0
0	55	7.666413859118	0
0	59	8.42196700416	0
0	61	8.5	0
0	63	8.569407907293	0
0	65	8.980730005214	1
0	76	9.50612767652	0
0	79	9.978735649753	0
0	83	10.5	0
0	92	12	0
0	96	13	0
0	112	14.806429562305	0
0	115	14.94990261074	0
0	119	15.46250079508	0
0	121	15.5	0
0	139	17.182724726955	0
0	141	17.5	0
0	143	17.503143782808	0
0	145	17.634929967806	0
0	159	18.40743026953	0
0	166	18.789621005336	0
0	172	20	0
0	174	20.154471209451	0
0	176	20.363864902125	0
0	177	20.5	0
0	179	20.829117248038	0
0	183	21.465270212339	0
0	199	22.444740071076	0
0	220	23.701174201033	0
0	223	23.749702174861	0
0	225	24.5	0
0	232	25.872696229259	0
0	235	25.887860661026	1
0	238	26	0
0	249	27.084083102544	0
0	252	27.260619623444	0
0	272	28.592002791548	0
0	299	32.295741626997	0
0	311	33.099723072289	0
0	314	33.341615192827	0
0	316	33.525611353062	0
0	321	34.398297775651	0
0	324	34.696693885309	0
0	333	35.5	0
0	335	36.106976875151	0
0	338	36.409072152319	0
0	339	36.5	0
0	343	37.09320785487	0
0	348	38	0
0	350	38.019043131072	0
0	352	38.420369946418	0
0	354	38.56168296802	0
0	357	39.355623968609	0
0	360	39.361892991996	1
0	361	39.5	0
0	363	39.724864877715	0
0	365	39.778136044261	0
0	368	40.526031144702	0
0	370	41	0
0	372	41.022885253161	0
0	378	41.859150690146	0
0	380	42	0
0	382	42.321020658212	1
0	388	43	0
0	390	43.466794262009	1
0	391	43.5	0
0	393	44.153758861881	0
0	396	44.461086796612	0
0	404	44.899692994556	0
0	407	44.982116947264	0
0	420	45.847341407901	0
0	423	45.912259593864	0
0	427	46.333820922397	0
0	430	46.484018660979	0
0	432	46.78395207674	0
0	435	47.085806291752	0
0	443	48.5	0
0	445	48.524941632502	0
0	446	49	0
0	452	49.830492241336	0
0	458	50.84188238906	0
0	460	51	0
0	461	51.5	0
0	463	51.565585134628	0
0	465	51.850044667805	0
0	470	53	0
0	471	53.5	0
0	475	54.061763323681	0
0	478	54.185299465511	0
0	488	55.586223142821	0
0	491	55.750303608463	0
0	497	56.5	0
0	499	57.353814880093	0
0	504	58	0
0	506	58.347906916106	1
0	512	59	0
0	514	59.071448664045	0
0	515	59.5	0
0	517	59.567191229155	0
0	519	59.838439060216	0
0	543	61.425655019928	0
0	545	61.5	0
0	555	62.350491883778	0
0	567	63.5	0
0	569	63.574002143187	1
0	574	63.996973941995	0
0	576	64	0
0	577	64.5	0
0	592	65.748122737461	0
0	595	65.77447245302	0
0	596	66	0
0	597	66.5	0
0	598	67	0
0	604	68	0
0	606	68.654015371909	0
0	609	68.676594638038	1
0	610	68.795409337703	0
0	612	69	0
0	614	69.248593800847	0
0	616	69.305624628407	0
0	618	69.354919091139	1
0	620	69.875782257474	0
0	631	71.405181763421	0
0	634	71.519141456442	0
0	637	71.804862280785	0
0	639	71.900618091363	1
0	640	72	0
0	642	72.248477875703	1
0	643	72.288132988587	0
0	646	72.336096404607	1
0	655	73.5	0
0	657	73.775128792922	1
0	658	73.781886150032	0
0	668	74.821471491477	0
0	678	76	0
0	680	76.187710993638	0
0	685	77.07869879275	0
0	695	78.5	0
0	697	78.824249629972	0
0	703	79.5	0
0	705	79.503532392462	0
0	707	79.826313440542	0
0	709	79.853131065928	1
0	710	79.920072828358	0
0	728	81	0
0	730	82	0
0	732	82.367004976418	0
0	745	83.5	0
0	747	83.734930028123	0
0	749	83.759737822905	0
0	762	86	0
0	789	88.473088369224	0
0	791	88.5	0
0	910	98.991576902246	0
0	934	101	0
0	936	101.036025374819	0
0	938	101.306916176438	0
0	965	103.471807660887	0
0	968	103.495793068789	0
0	969	103.5	0
0	971	103.590001174802	0
0	984	104.879524398865	0
0	991	105.5	0
0	993	105.605274904122	1
0	996	105.73711152127	0
0	1009	107.4142889287	0
0	1016	108	0
0	1018	108.173871009665	0
0	1051	110.5	0
0	1075	113.123818960018	0
0	1078	113.437665020922	0
0	1094	115.699752745991	0
0	1097	115.871037016219	0
0	1121	118.048100228346	0
0	1141	120.5	0
0	1143	120.834661438058	0
0	1145	120.903857205595	1
0	1157	121.291887224345	0
0	1175	123.5	0
0	1177	123.696992555167	0
0	1179	123.95667372901	0
0	1186	124.525373847529	0
0	1189	124.670640011093	0
0	1191	124.843101085554	0
0	1204	126	0
0	1219	127.441661247398	0
0	1250	129.625008233797	0
0	1253	129.993819645057	0
0	1304	133.800482558742	0
0	1336	136	0
0	1361	138.5	0
0	1397	141.076276779767	0
0	1400	141.11526124467	0
0	1407	142.212184095191	0
0	1410	142.38061080692	1
0	1419	143.5	0
0	1421	143.539338693564	0
0	1423	143.788847912128	1
0	1432	144.760390994605	0
0	1435	144.975476292527	1
0	1488	149.578746683759	0
0	1507	151.288822718467	0
0	1525	153.308377085223	0
0	1527	153.5	0
0	1544	155.531479824199	0
0	1547	155.737132741959	0
0	1569	157.473786801036	0
0	1578	158	0
0	1580	158.08612964192	0
0	1582	158.354933661119	0
0	1586	158.67141220805	0
0	1589	158.858617900764	0
0	1604	159.64522319985	0
0	1607	159.953940826244	1
0	1608	159.990755328439	0
0	1614	160.584172777853	0
0	1617	160.798451699923	1
0	1618	160.939128098105	0
0	1628	162	0
0	1632	163	0
0	1634	163.263359681719	0
0	1636	163.634788688844	0
0	1642	164.637708378246	0
0	1649	165.5	0
0	1655	166.338342544715	0
0	1658	166.350436430307	1
0	1666	167	0
0	1668	167.001677460339	0
0	1674	168	0
0	1678	168.748063201937	0
0	1681	168.781628252893	0
0	1690	169.902082788594	0
0	1693	169.908626783282	0
0	1701	170.5	0
0	1703	171.090247759698	0
0	1706	171.254718567443	0
0	1712	172	0
0	1714	172.497835117282	1
0	1720	173	0
0	1721	173.5	0
0	1723	173.954119960246	0
0	1734	175.605530215629	0
0	1736	176	0
0	1738	176.023504233599	0
0	1740	176.093185025319	1
0	1741	176.148479568628	0
0	1753	178.079744964707	0
0	1756	178.363153541865	0
0	1757	178.5	0
0	1759	178.575954051946	0
0	1773	180.5	0
0	1775	180.512393921714	0
0	1777	180.582220365083	1
0	1778	180.722859072575	0
0	1781	180.839538908408	0
0	1782	181	0
0	1784	181.064600423109	0
0	1786	181.252837842128	0
0	1804	183	0
0	1806	183.586732971075	0
0	1809	183.640104402484	0
0	1811	183.786698184356	1
0	1812	183.926285694122	0
0	1838	186	0
0	1840	186.107109331818	0
0	1842	186.17497802593	1
0	1843	186.421121796136	0
0	1861	188.357294436019	0
0	1863	188.5	0
0	1865	188.611988854755	1
0	1868	188.707056788683	0
0	1886	190.596402090861	0
0	1889	190.72667564215	1
0	1894	190.995791546382	0
0	1897	191.048549087472	0
0	1912	193	0
0	1913	193.5	0
0	1915	193.889323800403	0
0	1933	195.5	0
0	1935	196.005376123902	0
0	1938	196.268748356947	0
0	1949	198.055384761872	0
0	1951	198.5	0
0	1953	198.99206557695	0
0	1973	200.5	0
0	1975	200.636665052838	0
0	1976	201	0
0	1978	201.18436585328	1
0	1979	201.379141571576	0
0	1995	203.23846185082	0
0	1998	203.405062248568	1
0	1999	203.5	0
0	2022	205.639889107931	0
0	2025	205.894961449343	0
0	2057	208.068302452095	0
0	2079	210.5	0
0	2081	210.654409206099	1
0	2103	213.335810803762	0
0	2106	213.505906362233	0
0	2109	213.709443136835	0
0	2125	215.5	0
0	2127	215.717263609829	1
0	2132	215.902679322971	0
0	2137	216.260551545415	0
0	2150	218	0
0	2152	218.0189307965	0
0	2154	218.26768016359	0
0	2169	220.5	0
0	2171	220.502137909491	0
0	2173	221.228323104704	0
0	2193	223.14786363051	0
0	2195	223.5	0
0	2197	223.786422111161	1
0	2218	225.552388338944	0
0	2221	225.8626615242	0
0	2223	225.93676738903	0
0	2227	226.197841423446	0
0	2230	226.456176293582	1
0	2231	226.472090324601	0
0	2248	228	0
0	2250	228.07897290945	0
0	2252	228.109224162694	0
0	2254	228.418212069503	0
0	2255	228.5	0
0	2267	230.5	0
0	2269	230.658113977156	0
0	2270	231	0
0	2272	231.019443410135	0
0	2274	231.382166983928	0
0	2292	233	0
0	2314	235.654861036481	0
0	2319	236.066815016612	0
0	2336	238	0
0	2338	238.012785384944	0
0	2340	238.27845536716	0
0	2344	238.708325127583	0
0	2359	240.5	0
0	2361	240.81452003483	0
0	2362	241	0
0	2364	241.061934858834	0
0	2366	241.304941563033	0
0	2368	241.323320185964	1
0	2376	243	0
0	2378	243.722973370814	0
0	2390	245.933892271647	0
0	2392	246	0
0	2474	253.678913489473	0
0	2500	255.840714816698	0
0	2502	256	0
0	2504	256.051089291651	1
0	2505	256.173240126624	0
0	2508	256.358212323723	0
0	2524	258	0
0	2526	258.374422975954	0
0	2527	258.5	0
0	2529	258.668647264921	0
0	2531	258.922059059186	1
0	2561	261.210880192741	0
0	2564	261.45624203936	0
0	2584	263.603964388976	0
0	2587	263.995128896005	0
0	2644	268.633916691443	0
0	2647	268.933602696364	1
0	2664	270.636931774929	0
0	2667	270.963236266891	0
0	2669	271.050050656081	0
0	2672	271.11731514268	0
0	2674	271.121504532907	0
0	2676	271.178407648847	0
0	2678	271.190532987311	0
0	2680	271.341422997146	1
0	2681	271.355110772223	0
0	2684	271.414658014618	0
0	2709	273.5	0
0	2711	273.549673358333	1
0	2714	273.79927700459	0
0	2717	273.96069240341	0
0	2741	276.020101104747	0
0	2744	276.422341408829	1
0	2762	278.639055156197	0
0	2784	280.597445041394	0
0	2787	280.625219196515	0
0	2789	280.673431448667	0
0	2811	282.341882134602	0
0	2814	283	0
0	2816	283.130797931721	1
0	2817	283.186732821978	0
0	2820	283.516974282208	0
0	2823	283.64325055898	0
0	2828	284.881483000696	0
0	2831	285.5	0
0	2832	286	0
0	2834	286.006385003558	0
0	2839	287.486897005121	0
0	2846	288	0
0	2847	288.5	0
0	2849	288.521946142202	0
0	2851	288.784890962858	0
0	2855	289.5	0
0	2861	290.5	0
0	2863	290.834102296136	0
0	2864	291	0
0	2887	293.184025419837	0
0	2890	293.362900520433	0
0	2898	293.890005745431	0
0	2905	295.5	0
0	2907	295.966183798165	0
0	2909	296.094558708942	0
0	2912	296.214837745582	0
0	2931	298.054473765298	0
0	2948	299.950094173542	0
0	2956	300.672776891861	0
0	2970	302	0
0	2977	303.051017126638	0
0	2986	303.949692264036	0
0	2998	304.751950050416	0
0	3006	305.600258624488	0
0	3009	305.937789582904	1
0	3010	305.975297247557	0
0	3013	306.295915028266	0
0	3016	307	0
0	3018	307.416322162352	0
0	3030	308.557642633582	0
0	3033	308.832191808405	0
0	3035	308.954210046506	0
0	3046	309.657428133222	0
0	3054	311	0
0	3056	311.196289800744	0
0	3060	312	0
0	3062	312.101890643657	0
0	3072	313.712310663259	0
0	3082	314.683130062912	0
0	3085	314.8756414348	0
0	3111	316.149692846985	0
0	3127	317.039680496725	0
0	3130	317.280424144558	1
0	3131	317.350478256369	0
0	3134	317.427773288178	0
0	3177	321.026811245375	0
0	3180	321.264726338127	0
0	3193	322.355304651899	0
0	3196	322.426232317834	0
0	3203	323.5	0
0	3205	323.649146579607	0
0	3207	323.956743093926	0
0	3226	326	0
0	3228	326.190688908501	0
0	3239	328.5	0
0	3241	328.545145267091	0
0	3243	328.561784324321	0
0	3256	329.998637659841	0
0	3268	331	0
0	3270	331.109009003123	0
0	3272	331.271910444699	0
0	3280	332	0
0	3282	332.144506484962	0
0	3287	333.135739103038	0
0	3292	333.604270852462	0
0	3295	333.696532942615	1
0	3296	333.899675477226	0
0	3301	334.5	0
0	3303	334.668475230739	0
0	3309	335.5	0
0	3311	335.745832554886	0
0	3315	336.17704336893	0
0	3318	336.304489916892	0
0	3329	337.477474633924	0
0	3341	338.408876020783	0
0	3343	338.5	0
0	3345	338.957885102262	0
0	3351	339.5	0
0	3353	339.595026781858	1
0	3354	339.736505497993	0
0	3361	340.5	0
0	3363	340.919812364359	0
0	3364	341	0
0	3366	341.473618970775	1
0	3376	343	0
0	3378	343.231170259518	0
0	3382	343.706598172753	0
0	3407	345.5	0
0	3413	346.30027140688	0
0	3425	347.48687998515	0
0	3433	348.018365829637	0
0	3436	348.104960792685	1
0	3438	348.543358005149	0
0	3441	348.567699267487	0
0	3443	349.5	0
0	3445	349.796483211764	0
0	3447	349.859188484748	0
0	3452	350.55784689664	0
0	3454	351	0
0	3456	351.213291940636	0
0	3464	352	0
0	3480	353.667175513508	0
0	3483	353.908455418752	0
0	3491	354.5	0
0	3493	354.532601191155	0
0	3502	356	0
0	3509	357.015757827107	0
0	3512	357.188401748571	0
0	3521	358.5	0
0	3530	359.944987059491	0
0	3536	360.654884123483	0
0	3539	360.899691913615	0
0	3540	361	0
0	3542	362	0
0	3544	362.043640142427	1
0	3547	362.168184060773	0
0	3550	362.283438571603	0
0	3559	363.423980944586	0
0	3561	363.5	0
0	3571	364.5	0
0	3578	365.715789031682	0
0	3580	366	0
0	3586	367	0
0	3588	367.112955489944	1
0	3589	367.134356591869	0
0	3592	367.318034345771	1
0	3598	368	0
0	3600	368.081810058802	0
0	3602	368.256782496877	1
0	3604	368.599657763442	0
0	3607	368.635144859643	0
0	3609	368.835770122851	1
0	3614	369.867314910795	0
0	3617	369.981359039373	0
0	3627	371.068735076998	0
0	3634	372	0
0	3636	372.271401787524	0
0	3638	372.47487011088	0
0	3649	373.5	0
0	3655	374.5	0
0	3657	374.598302634845	0
0	3659	374.666132223491	1
0	3677	376.26692217252	0
0	3680	376.38992271639	0
0	3714	379.815261556245	0
0	3717	379.898179392571	0
0	3724	380.768259997064	0
0	3736	382	0
0	3738	382.473767988109	0
0	3742	383	0
0	3755	384.5	0
0	3757	384.97315284804	1
0	3767	385.5	0
0	3769	385.5541991224	0
0	3771	385.583778328875	0
0	3773	385.708963843865	0
0	3803	388.003034402687	0
0	3820	389.828587541321	0
0	3825	390.5	0
0	3827	390.650696640312	0
0	3829	390.665644288368	0
0	3831	390.797343683077	0
0	3833	390.916787562122	0
0	3835	390.981819886747	1
0	3841	391.352572051551	0
0	3845	392.101711348298	0
0	3857	393.159112399462	0
0	3860	393.509584383419	0
0	3863	393.52958906319	1
0	3889	396.382003193826	0
0	3909	398.5	0
0	3911	398.528560704346	0
0	3913	398.841000246781	0
0	3915	398.983731603644	0
0	3943	401.451045305232	0
0	3967	402.494658186285	0
0	3979	403.5	0
0	3981	403.620240410667	0
0	3983	403.816913805522	0
0	3993	404.5	0
0	4005	406.052994427144	0
0	4017	407.415989539274	0
0	4020	407.494312627941	0
0	4031	408.5	0
0	4033	408.554170542887	0
0	4035	408.55672615812	0
0	4037	408.915487122371	0
0	4039	408.920968763912	0
0	4064	411	0
0	4066	411.119392297968	0
0	4093	413.5	0
0	4095	413.911860925811	0
0	4119	416.439223880849	0
0	4131	418.051551206436	0
0	4134	418.133781612158	1
0	4154	419.729095649699	0
0	4161	421.190932533642	0
0	4170	422	0
0	4172	422.139454649364	0
0	4174	422.288078597734	1
0	4181	423.5	0
0	4183	423.559690721183	0
0	4186	424.958906230396	0
0	4194	425.740067618338	0
0	4196	426	0
0	4201	427.183975156456	0
0	4204	427.249052713926	0
0	4213	428.070217113887	0
0	4215	428.5	0
0	4217	428.755020252173	1
0	4218	428.849133147415	0
0	4221	428.963131515534	0
0	4228	429.591468798296	0
0	4240	431	0
0	4246	432	0
0	4248	432.092937055271	0
0	4250	432.487024699202	0
0	4256	433.556281146873	0
0	4267	434.5	0
0	4273	436.184926583954	0
0	4280	436.95940159321	0
0	4282	437	0
0	4284	437.415307133067	0
0	4304	439	0
0	4306	439.160728446102	0
0	4308	439.338765646867	0
0	4310	439.478236636189	0
0	4312	439.581066629857	0
0	4318	440.798458962423	0
0	4321	440.866189944302	0
0	4333	441.5	0
0	4335	442.07500728567	0
0	4345	443.09250057866	0
0	4348	443.13156384029	0
0	4350	443.379445496364	0
0	4352	443.466742684564	0
0	4393	447.03294139411	0
0	4419	449.080980810093	0
0	4422	449.14572311415	0
0	4424	449.192440013441	0
0	4425	449.5	0
0	4427	449.621092920435	0
0	4443	451.263852860566	0
0	4446	451.410423682789	0
0	4448	451.489723786559	0
0	4452	451.979782489257	0
0	4457	452.403554673569	0
0	4463	453.5	0
0	4464	454	0
0	4466	454.469980727602	0
0	4467	454.5	0
0	4469	454.73650120447	0
0	4483	456.065470873193	0
0	4486	456.307326133873	0
0	4489	457.32778809879	0
0	4499	458.5	0
0	4501	458.542685763303	0
0	4503	458.790025227254	0
0	4505	459.5	0
0	4507	459.696569046343	0
0	4509	459.835979353904	0
0	4517	461.078124800258	0
0	4522	462	0
0	4524	462.136444635938	0
0	4532	463.500012114359	0
0	4535	463.524908490312	0
0	4537	463.754283541218	0
0	4543	464.5	0
0	4545	464.801940391517	0
0	4563	466.083990142254	0
0	4566	467	0
0	4568	467.11619829461	0
0	4591	469.5	0
0	4604	470.997223012787	0
0	4611	471.229396308542	0
0	4614	471.45018188863	0
0	4623	472.048184082385	0
0	4626	472.275907895133	0
0	4631	473.268868446456	0
0	4633	473.5	0
0	4635	473.509198204632	0
0	4638	474.716749600601	0
0	4641	474.956414767169	0
0	4645	475.5	0
0	4646	476	0
0	4654	477	0
0	4656	477.126120556273	1
0	4657	477.210260847512	0
0	4662	478	0
0	4663	478.5	0
0	4671	479.459371895684	0
0	4673	479.5	0
0	4675	479.847654853382	0
0	4677	480.5	0
0	4679	480.873085948832	0
0	4681	480.891449263338	0
0	4683	480.992178469651	0
0	4685	481.022127351201	0
0	4692	481.725057994314	0
0	4695	481.757380866988	0
0	4697	481.996387499026	0
0	4699	482.001399710317	0
0	4711	483.301482765358	0
0	4714	483.369019752284	0
0	4720	483.619035970333	0
0	4723	483.750287556635	0
0	4724	484	0
0	4726	484.229763286192	0
0	4728	484.382932306263	0
0	4730	484.555650550088	0
0	4733	484.71826175541	0
0	4738	485.549190191531	0
0	4741	485.648772468036	1
0	4761	487.01775645933	0
0	4764	487.094427532471	0
0	4776	488.777020171278	0
0	4779	489.45604475162	0
0	4781	489.5	0
0	4788	490.662148017607	0
0	4791	490.757712533973	0
0	4792	491	0
0	4797	492.355003141533	0
0	4808	493	0
0	4809	493.5	0
0	4811	493.785242008103	0
0	4815	494.5	0
0	4817	494.782672972138	0
0	4821	495.5	0
0	4824	497	0
0	4828	498	0
0	4830	498.895508387794	0
0	4840	499.61351061212	0
0	4845	500.5	0
0	4847	501.112422652381	0
0	4854	502	0
0	4856	502.074241915987	0
0	4866	503	0
0	4881	504.5	0
0	4883	504.824488885342	1
0	4884	504.902069866264	0
0	4894	505.506477024223	0
0	4897	505.86990185603	1
0	4898	505.902283278478	0
0	4905	506.262314644479	0
0	4915	507.234396841646	0
0	4922	508	0
0	4924	508.423473490566	0
0	4925	508.5	0
0	4927	508.616612631981	1
0	4928	508.693841117068	0
0	4931	508.914999833716	0
0	4938	509.636939084208	0
0	4953	511.21966326249	0
0	4958	512	0
0	4967	513.5	0
0	4973	514.5	0
0	4980	515.911940142869	0
0	4983	516.226335613551	0
0	4986	516.255858445768	1
0	5008	518	0
0	5010	518.030969484813	1
0	5011	518.182334463228	0
0	5022	518.782847028196	0
0	5030	519.97799926576	0
0	5036	520.972103055246	0
0	5038	521	0
0	5040	521.275199474586	0
0	5044	522	0
0	5046	522.063991060403	0
0	5070	524.817109571246	0
0	5073	524.841346590699	0
0	5103	527.079313321151	0
0	5135	529.5	0
0	5137	529.668604359708	0
0	5157	531.397783044408	0
0	5187	533.5	0
0	5189	533.529648982293	1
0	5190	533.86521754003	0
0	5210	536	0
0	5212	536.443314775897	0
0	5227	538.5	0
0	5229	538.689770280733	0
0	5246	541	0
0	5286	543.656099677872	0
0	5289	543.997191352646	0
0	5315	546.205575059953	0
0	5318	546.475392807726	0
0	5339	548.5	0
0	5341	548.665314601275	0
0	5364	550.955238704833	0
0	5366	551	0
0	5380	553	0
0	5381	553.5	0
0	5383	553.675523555626	0
0	5385	553.843017168999	0
0	5387	553.913328509249	0
0	5409	556.01015337015	0
0	5433	558.5	0
0	5435	558.985275815321	0
0	5444	560.651557515279	0
0	5446	561	0
0	5450	561.638481798928	0
0	5453	561.973788551057	0
0	5455	562.157666990811	0
0	5465	563.387669752956	0
0	5467	563.5	0
0	5468	564	0
0	5470	564.09231650882	1
0	5471	564.451537081302	0
0	5473	564.5	0
0	5475	564.616691076843	0
0	5477	564.913394855668	0
0	5479	565.5	0
0	5480	566	0
0	5482	566.061475716705	0
0	5484	566.197266102931	0
0	5485	566.5	0
0	5487	567.091691302418	0
0	5490	567.234440603945	1
0	5498	568	0
0	5500	568.035258890725	0
0	5502	568.278072050678	0
0	5504	568.477405321141	0
0	5506	568.549212851386	0
0	5508	569	0
0	5510	569.062406903259	0
0	5512	569.223356971857	0
0	5514	569.400646751609	0
0	5516	569.45335149878	1
0	5532	570.999642223716	0
0	5534	571	0
0	5536	571.482008764353	0
0	5552	573	0
0	5554	573.043686967824	0
0	5556	573.410099581927	0
0	5557	573.5	0
0	5576	575.686830332468	0
0	5578	576	0
0	5591	578.455488743895	0
0	5610	580.763582750993	0
0	5613	580.86602473873	0
0	5655	583.186555116998	0
0	5675	585.5	0
0	5685	587.133629906516	0
0	5692	588	0
0	5694	588.355408242941	0
0	5704	588.958815012083	0
0	5709	589.5	0
0	5719	590.5	0
0	5721	590.638172318672	1
0	5727	591.099139581214	0
0	5730	591.103918630619	0
0	5732	591.43766273577	0
0	5734	592	0
0	5745	593.5	0
0	5750	594.699539904813	0
0	5754	596	0
0	5756	596.00865163714	0
0	5758	596.031475278089	0
0	5768	597	0
0	5770	597.38519528624	0
0	5772	597.385731353368	1
0	5773	597.451439406709	0
0	5781	598.371422630495	0
0	5784	598.379344718553	0
0	5785	598.5	0
0	5794	599.877235497301	0
0	5799	600.5	0
0	5801	600.779337270703	0
0	5803	601.01910853623	0
0	5817	602.479869711177	0
0	5821	603.048879146809	0
0	5823	603.5	0
0	5825	603.578796369961	1
0	5826	603.742213734103	0
0	5831	604.5	0
0	5833	604.543398220667	0
0	5840	605.527291146361	0
0	5843	605.549231401612	0
0	5844	606	0
0	5852	608	0
0	5854	608.062148310748	0
0	5856	608.393016506155	0
0	5857	608.5	0
0	5862	609.901996808042	0
0	5869	610.5	0
0	5873	611.321753062846	0
0	5876	611.435429940702	0
0	5886	612	0
0	5888	612.479244571534	0
0	5905	613.5	0
0	5916	614.548047016972	0
0	5919	614.874935895557	0
0	5927	616.372977040176	0
0	5949	618.5	0
0	5951	618.533699622382	0
0	5987	621.219325993868	0
0	5990	621.430961056775	0
0	6020	623.697941080898	0
0	6023	623.763895025701	0
0	6043	626.325715669349	0
0	6069	628.5	0
0	6071	628.563181107614	0
0	6073	628.787291047692	0
0	6075	628.993464539119	1
0	6125	633.367118535026	0
0	6128	633.755407411032	0
0	6131	633.786707257018	0
0	6145	635.5	0
0	6147	635.555296025663	0
0	6149	635.798225408766	0
0	6150	636	0
0	6152	636.234764193793	0
0	6154	636.473575011758	0
0	6176	638	0
0	6178	638.147750338646	0
0	6180	638.641259325039	0
0	6195	640.5	0
0	6197	640.710847522475	0
0	6198	641	0
0	6214	643	0
0	6215	643.5	0
0	6217	643.850439519471	1
0	6218	643.85918040332	0
0	6241	645.5	0
0	6242	646	0
0	6255	647.465348457611	0
0	6260	648	0
0	6262	648.132721425143	0
0	6264	648.415251537492	0
0	6273	649.5	0
0	6281	650.5	0
0	6311	653.083126795805	0
0	6316	653.612580171219	0
0	6353	657.383473957354	0
0	6366	658.979035688959	0
0	6371	659.5	0
0	6373	659.680735891775	0
0	6375	659.908083341225	0
0	6381	661.135210848101	0
0	6388	662	0
0	6390	662.380572935705	1
0	6391	662.39415122731	0
0	6405	663.206249398022	0
0	6408	663.883041867642	0
0	6411	663.898352474785	0
0	6413	663.921131674991	0
0	6415	663.937460957651	0
0	6417	663.940030716836	0
0	6451	667.191626366873	0
0	6472	668.665137099706	0
0	6503	671.221057027736	0
0	6521	673.429965239993	0
0	6524	673.524855927538	0
0	6548	675.97914367354	0
0	6550	676	0
0	6567	678.065447084508	0
0	6606	680.641517018359	0
0	6609	680.964704288231	1
0	6610	680.976956222179	0
0	6629	682.313591375097	0
0	6636	683	0
0	6638	683.084170862719	0
0	6640	683.231911877183	1
0	6644	683.847467875283	0
0	6654	684.563855549276	0
0	6657	684.808921426202	0
0	6676	685.999779461339	0
0	6683	686.239314088234	0
0	6686	686.381261114828	0
0	6695	687.254122411452	0
0	6699	688.466014248645	0
0	6702	688.483236402081	0
0	6703	688.5	0
0	6705	688.821980207011	0
0	6707	688.975248338973	0
0	6720	689.603316076489	0
0	6723	689.945000976731	0
0	6730	690.861825851522	0
0	6742	692	0
0	6744	692.436188372009	1
0	6750	693	0
0	6752	693.142775718183	0
0	6758	693.824217552697	0
0	6761	693.920315325588	0
0	6795	697.372719984007	0
0	6803	698.396826484632	0
0	6806	698.441716474286	1
0	6839	702.003888267083	0
0	6842	702.321590892263	0
0	6845	703.097739916799	0
0	6848	703.172869400139	1
0	6851	703.410395276822	0
0	6856	703.691501083175	0
0	6859	703.809123553194	0
0	6864	704.760978612705	0
0	6870	705.618292945786	0
0	6873	705.671274187776	0
0	6874	706	0
0	6876	706.064232021154	0
0	6878	706.406339539847	0
0	6886	707	0
0	6888	707.242843396218	0
0	6897	709.5	0
0	6905	711.354565774386	0
0	6911	712.200691273355	0
0	6914	712.243897949712	1
0	6915	712.247919621018	0
0	6921	713.295592137451	0
0	6923	713.5	0
0	6930	714.570200506337	0
0	6947	716.272466997919	0
0	6953	717.058677389703	0
0	6990	720.68777217059	0
0	6993	720.69198336686	0
0	6995	720.896630371849	0
0	6997	721.098737918443	0
0	7008	723	0
0	7009	723.5	0
0	7011	723.736820701012	0
0	7013	723.831246601908	1
0	7016	723.876367525223	0
0	7019	723.927047981136	1
0	7028	724.982501949237	0
0	7047	726.155255983704	0
0	7050	726.191059103909	1
0	7051	726.308681575573	0
0	7067	728.402288587698	0
0	7069	728.5	0
0	7071	728.803476619204	0
0	7090	730.549284519789	0
0	7093	730.699782435117	0
0	7095	730.812687839536	0
0	7097	730.839111271749	0
0	7098	731	0
0	7100	731.044014790975	0
0	7102	731.167071578862	0
0	7104	731.463736708373	0
0	7117	733.5	0
0	7140	735.921137388	0
0	7142	736	0
0	7144	736.207727164652	0
0	7154	738	0
0	7156	738.370171099447	1
0	7157	738.5	0
0	7159	738.583970135393	1
0	7160	738.608225766424	0
0	7163	738.636020913783	0
0	7165	738.67788967634	0
0	7194	740.817249088213	0
0	7217	743.493783868851	0
0	7231	745.5	0
0	7233	745.645267267151	0
0	7235	745.79488118973	0
0	7241	746.168056324279	0
0	7255	748.168542757167	0
0	7257	748.5	0
0	7268	749.845195571774	0
0	7273	750.5	0
0	7275	750.565296523598	0
0	7277	750.723083708695	0
0	7279	751.087988812926	0
0	7289	752.25925893689	0
0	7292	753	0
0	7294	753.345586205225	0
0	7296	753.476748268574	0
0	7297	753.5	0
0	7299	753.630117801256	0
0	7301	753.699636957596	0
0	7303	753.766351803339	0
0	7305	753.996157252309	0
0	7312	754.561786450477	0
0	7322	755.680351686885	0
0	7325	756.154066310036	0
0	7328	756.402252777996	0
0	7334	757	0
0	7340	758	0
0	7341	758.5	0
0	7345	759.5	0
0	7347	759.808596336311	0
0	7349	759.829437315654	0
0	7359	760.5	0
0	7360	761	0
0	7362	761.058291575908	1
0	7363	761.090334406841	0
0	7366	761.375645369681	0
0	7368	761.488623277887	0
0	7375	762.183408614057	0
0	7378	762.339858627322	0
0	7381	763.062506414237	0
0	7383	763.5	0
0	7385	763.934265992363	1
0	7391	764.5	0
0	7395	765.5	0
0	7397	765.846872821717	1
0	7399	766.033433661463	0
0	7402	766.096539344819	1
0	7403	766.12225295469	0
0	7418	767	0
0	7430	768.881461465099	0
0	7437	769.5	0
0	7439	769.540201561578	0
0	7457	771.251152498982	0
0	7463	772.040114847963	0
0	7469	773.5	0
0	7471	773.817965826497	0
0	7477	774.5	0
0	7479	774.561863940112	0
0	7481	774.939976832807	0
0	7500	777	0
0	7502	777.351348967396	0
0	7511	778.226949595512	0
0	7514	778.306330133791	0
0	7516	778.411906274935	0
0	7518	778.414209735568	1
0	7528	779.891651211785	0
0	7539	781.255339818639	0
0	7542	781.39993510966	0
0	7544	781.434348479406	0
0	7559	783.359210018811	0
0	7562	783.425757528823	0
0	7566	783.667514651959	0
0	7576	784.834027930771	0
0	7586	785.823941812747	0
0	7588	786	0
0	7590	786.204588932599	0
0	7592	786.235775833662	1
0	7599	787.050693650369	0
0	7602	787.239361809742	0
0	7612	788	0
0	7614	788.370333055648	0
0	7618	788.717577004361	0
0	7640	790.555782554158	0
0	7642	791	0
0	7644	791.190529452827	0
0	7646	791.276322584042	0
0	7648	791.359708929056	0
0	7665	792.241630352597	0
0	7668	792.279838295157	0
0	7682	793.542681532128	0
0	7709	796.086218733324	0
0	7734	798.500319168116	0
0	7737	798.514491869722	0
0	7763	801.14318149646	0
0	7777	802.469901688912	0
0	7794	803.877253806325	0
0	7814	806	0
0	7816	806.160209827855	0
0	7848	808.720510253427	0
0	7851	808.753076598134	0
0	7853	808.764924605962	1
0	7862	809.69592208093	0
0	7865	809.747487825803	1
0	7883	811.340376386038	0
0	7918	813.641125615593	0
0	7943	816.282218077845	0
0	7946	816.431444914666	0
0	7978	818.662790937496	0
0	8003	821.497491778559	0
0	8013	822.206842759126	0
0	8025	823.5	0
0	8027	823.62599782185	0
0	8029	823.758663272262	0
0	8035	824.5	0
0	8037	824.913063229298	0
0	8059	826.45157151192	0
0	8083	828.5	0
0	8132	833.574400603766	0
0	8135	833.667412431674	0
0	8137	833.689941116437	0
0	8165	836.094121720009	0
0	8168	836.374915506345	0
0	8184	838.678456215708	0
0	8200	839.968130160468	0
0	8217	841.354622773794	0
0	8222	842	0
0	8224	842.469394087579	0
0	8236	843.747179999168	0
0	8244	844.54161707767	0
0	8247	844.669028458083	0
0	8249	844.906665084671	0
0	8258	846	0
0	8260	846.249011934376	0
0	8263	847.322361173394	0
0	8277	848.5	0
0	8286	849.764942610887	0
0	8289	849.907086002051	0
0	8321	852.144961236803	0
0	8326	853.514005438743	0
0	8329	853.763449041012	0
0	8333	854.5	0
0	8335	854.59900423161	0
0	8337	854.707059014334	1
0	8357	856.428149419667	0
0	8380	858.664939071611	0
0	8402	861	0
0	8419	862.432789625955	0
0	8435	863.5	0
0	8439	864.5	0
0	8441	864.558423666625	0
0	8443	864.764147306117	0
0	8445	864.879451502695	0
0	8465	867.022336871498	0
0	8468	867.046936129864	0
0	8470	867.243141534387	0
0	8472	867.320233043317	0
0	8482	868.616088844988	0
0	8485	868.706693920891	1
0	8486	868.771506403436	0
0	8489	869.5	0
0	8503	871.220996030563	0
0	8506	871.319642007853	0
0	8508	871.356506850757	0
0	8521	872.332321488038	0
0	8529	873.293121816102	0
0	8532	873.624832464789	0
0	8535	874.5	0
0	8537	874.575396443259	0
0	8544	875.910732761203	0
0	8546	876	0
0	8548	876.203345409801	0
0	8554	877	0
0	8556	877.169917977378	0
0	8558	877.353406883699	0
0	8561	878.099024755657	0
0	8570	878.929753489641	0
0	8575	879.5	0
0	8582	880.725980177879	0
0	8585	880.825766983914	0
0	8586	881	0
0	8588	881.209264741773	0
0	8590	882	0
0	8592	883	0
0	8594	883.11899661339	0
0	8596	883.460601856635	0
0	8598	883.528560792182	0
0	8605	884.5	0
0	8607	884.862958870689	0
0	8613	885.5	0
0	8614	886	0
0	8631	888.146194315495	0
0	8633	888.5	0
0	8635	888.671202469341	1
0	8636	888.722880567049	0
0	8639	888.762347975606	0
0	8641	888.919815840558	0
0	8650	889.859618995247	0
0	8665	892.116429267081	0
0	8668	892.390285427578	0
0	8688	894.51614906912	0
0	8698	895.997404691024	0
0	8703	896.231099285554	0
0	8706	896.316399691292	0
0	8719	897.152237829259	0
0	8724	898	0
0	8726	898.579093618697	0
0	8735	899.5	0
0	8737	899.937537723516	1
0	8751	901.026659757614	0
0	8754	901.140601789561	0
0	8763	902.209871045665	0
0	8766	902.214576943678	0
0	8773	903.5	0
0	8775	903.956380883507	0
0	8779	904.5	0
0	8786	905.631928682956	0
0	8789	905.707644815167	0
0	8791	905.72580984751	0
0	8793	906.098934827107	0
0	8811	908.083890686611	0
0	8814	908.346462775444	0
0	8815	908.5	0
0	8817	908.961187564111	0
0	8819	908.986463264784	0
0	8826	910.685886837025	0
0	8828	911	0
0	8830	911.324367141541	0
0	8843	912.208900561224	0
0	8848	913	0
0	8850	913.15819062652	0
0	8852	913.309339081683	0
0	8854	913.472049528457	0
0	8893	916.133545130399	0
0	8918	918.696367647289	0
0	8921	918.79351293234	0
0	8949	921.02168514009	0
0	8952	921.070272886337	0
0	8992	925.913534147317	0
0	8995	925.94388903389	1
0	8997	926.003345985254	0
0	9000	926.307068161333	0
0	9002	926.358070477989	0
0	9004	926.485969709456	0
0	9027	928.486454235949	0
0	9038	928.925196903323	0
0	9064	930.592008801533	0
0	9067	930.75579278666	0
0	9075	931.21968643617	0
0	9089	933.06022132408	0
0	9092	933.122148702474	0
0	9094	933.221055053044	0
0	9096	933.345864682663	0
0	9098	933.446063280188	0
0	9104	933.983717075074	0
0	9115	935.5	0
0	9116	936	0
0	9118	936.453863430388	0
0	9120	936.46010431536	0
0	9122	936.475840996116	0
0	9138	938	0
0	9140	938.14877737774	0
0	9142	938.448628304102	0
0	9144	938.529184609834	0
0	9147	938.558614632911	1
0	9150	938.647976455708	0
0	9215	943.188051496719	0
0	9234	945.538325445345	0
0	9254	948	0
0	9256	948.282426724763	0
0	9269	950.5	0
0	9271	950.758744735514	0
0	9273	950.836720726537	0
0	9300	953	0
0	9308	953.914930802278	0
0	9329	955.5	0
0	9333	956.449827874348	0
0	9336	956.473383529453	0
0	9358	958	0
0	9360	958.135468881931	0
0	9382	960.620200403348	0
0	9389	961.205024698739	0
0	9421	963.328506997456	0
0	9424	963.522808242503	0
0	9427	963.959945552417	1
0	9433	965.5	0
0	9435	965.763723275444	0
0	9437	965.988426315704	0
0	9459	968.191406889515	0
0	9466	968.830607436178	0
0	9469	968.951669955672	1
0	9478	969.592801300096	0
0	9483	970.5	0
0	9485	970.601100039035	0
0	9487	970.882075877793	0
0	9489	971.266598264723	0
0	9508	973	0
0	9510	973.319496088312	1
0	9511	973.360372821178	0
0	9514	973.480605349456	0
0	9518	973.940910715323	0
0	9533	975.5	0
0	9535	976.454237390378	0
0	9558	978	0
0	9559	978.5	0
0	9561	978.695514029729	0
0	9563	978.797164093568	0
0	9576	980.566424793994	0
0	9579	980.57549590542	0
0	9581	981.112327490719	0
0	9591	982.066381156191	0
0	9594	982.269646924994	0
0	9600	983	0
0	9602	983.184662590054	0
0	9606	983.717050575465	0
0	9609	983.972943110973	0
0	9614	984.616143569813	0
0	9622	986	0
0	9624	986.235543748292	0
0	9631	987.038482106105	0
0	9634	987.397640115026	0
0	9650	988.768998272081	0
0	9655	989.5	0
0	9664	990.882305927302	0
0	9666	991	0
0	9668	991.209534596035	0
0	9670	991.275589235336	0
0	9677	992.243327801328	0
0	9680	992.424057602156	0
0	9684	993.592525940738	0
0	9689	994.5	0
0	9691	994.699504351272	0
0	9693	994.910920238965	0
0	9695	994.957072971796	0
0	9700	996	0
0	9707	997.122225916839	0
0	9717	998.5	0
0	9723	999.5	0
0	9725	999.571756398694	0
0	9727	999.776077455335	1
0	9749	1001.121168810319	0
0	9752	1001.49875967372	0
0	9770	1003.641707184824	0
0	9773	1003.734695373395	1
0	9774	1003.770499152545	0
0	9777	1003.973008424051	0
0	9786	1004.739363338283	0
0	9789	1004.892234520458	1
0	9796	1006	0
0	9798	1006.472481295879	0
0	9807	1007.116984042772	0
0	9828	1008.646418746105	0
0	9831	1008.668196707738	1
0	9832	1008.701496060351	0
0	9835	1008.716049678422	1
0	9836	1008.796191809961	0
0	9843	1009.5	0
0	9845	1009.752453674425	0
0	9858	1011	0
0	9860	1011.252137044483	0
0	9862	1011.397411514165	1
0	9863	1011.4487919693	0
0	9866	1011.471560156343	0
0	9868	1012	0
0	9870	1012.012507885307	1
0	9884	1013.970752749777	0
0	9888	1014.720579874599	0
0	9891	1014.791872799605	1
0	9903	1016.163620117869	0
0	9919	1017.211510895955	0
0	9922	1017.407143116003	0
0	9927	1018.5	0
0	9929	1018.711721187648	1
0	9932	1018.830664888026	0
0	9935	1018.867742693879	0
0	9937	1018.874680178947	0
0	9939	1018.879260465256	0
0	9943	1019.5	0
0	9953	1021.491611398627	0
0	9960	1022	0
0	9978	1023.709393053031	0
0	9981	1023.969890052657	0
0	9998	1026	0
0	10000	1026.002804509047	0
0	10002	1026.059195814035	0
0	10004	1026.312074733845	0
0	10024	1028.517455781991	0
0	10027	1028.779708016366	0
0	10029	1028.953801131021	0
0	10042	1029.735252614896	0
0	10050	1031	0
0	10069	1033.5	0
0	10076	1034.587850617412	0
0	10095	1036.194536045137	0
0	10108	1037	0
0	10110	1037.420671851088	0
0	10117	1038.397607287603	0
0	10128	1038.999601585293	0
0	10138	1039.709114253766	0
0	10144	1040.629925924631	0
0	10146	1041	0
0	10148	1041.17184600133	0
0	10150	1042	0
0	10157	1043.037047418202	0
0	10160	1043.250126628201	0
0	10162	1043.687886703481	0
0	10165	1043.806059962232	0
0	10174	1044.816701048669	0
0	10179	1045.5	0
0	10181	1045.779719056351	0
0	10183	1046.029165413999	0
0	10186	1047	0
0	10188	1047.005253054558	1
0	10189	1047.073457503845	0
0	10192	1047.118473194395	1
0	10195	1047.371696922491	0
0	10198	1048	0
0	10200	1048.017776222927	0
0	10202	1048.025130831865	0
0	10204	1048.238508796045	1
0	10207	1048.409459830397	0
0	10209	1048.5	0
0	10216	1049.617237128786	0
0	10226	1050.844424613631	0
0	10229	1050.910411934572	0
0	10230	1051	0
0	10257	1053.5	0
0	10274	1056	0
0	10276	1056.238705742226	0
0	10291	1058.067607506682	0
0	10294	1058.13410024665	0
0	10296	1058.186683017208	0
0	10298	1058.267022740973	0
0	10300	1058.451869074955	0
0	10301	1058.5	0
0	10303	1058.5867608646	0
0	10305	1058.824127804122	0
0	10314	1059.789535470085	0
0	10324	1060.982553132685	0
0	10327	1061.175001882312	0
0	10330	1062	0
0	10334	1063	0
0	10336	1063.299614393854	0
0	10338	1063.378783977024	0
0	10339	1063.5	0
0	10367	1066.282745944481	0
0	10370	1066.379482930166	1
0	10371	1066.39594116366	0
0	10383	1067.491814245815	0
0	10389	1068.074201798002	0
0	10392	1068.097496789551	0
0	10394	1068.363838662877	0
0	10396	1068.715646689612	0
0	10399	1068.772300097657	1
0	10400	1068.792150887869	0
0	10406	1069.534970594219	0
0	10409	1069.599520898676	0
0	10415	1070.5	0
0	10417	1070.535595687603	0
0	10419	1070.64654370896	0
0	10421	1071.035087413282	0
0	10424	1071.341493862924	0
0	10426	1071.451185135897	1
0	10431	1072.059352472371	0
0	10436	1073	0
0	10440	1073.784250695654	0
0	10443	1074.5	0
0	10447	1075.5	0
0	10448	1076	0
0	10452	1077	0
0	10454	1077.364233704105	0
0	10459	1078.283038419676	0
0	10461	1078.5	0
0	10463	1078.953061016534	0
0	10475	1079.5	0
0	10484	1080.50943557099	0
0	10487	1080.719304245539	0
0	10493	1081.270551886488	0
0	10500	1082	0
0	10514	1083.568963182456	0
0	10517	1083.682675666795	0
0	10519	1083.823077355365	0
0	10521	1083.943657492758	1
0	10554	1085.777344139356	0
0	10569	1087.359518089588	0
0	10572	1088	0
0	10574	1088.281379094921	0
0	10580	1088.771007193847	0
0	10583	1088.881811076514	0
0	10585	1088.954419695447	1
0	10587	1089.5	0
0	10589	1089.989581003336	0
0	10598	1090.9203372416	0
0	10609	1091.334459099595	0
0	10614	1092	0
0	10616	1092.159542436647	0
0	10618	1092.322364212014	0
0	10629	1093.5	0
0	10631	1093.529208177442	0
0	10633	1093.908454466852	0
0	10646	1094.718127988222	0
0	10658	1096	0
0	10666	1097	0
0	10677	1098.5	0
0	10679	1098.982094332939	0
0	10700	1100.88525968494	0
0	10703	1101.053007884498	0
0	10706	1101.344393377816	0
0	10717	1103.206366180711	0
0	10720	1103.409341765585	0
0	10721	1103.5	0
0	10723	1103.537536890782	1
0	10724	1103.71720719975	0
0	10727	1103.752531831417	0
0	10740	1105.512543914383	0
0	10743	1105.618801256251	0
0	10745	1106.163380024091	0
0	10758	1108	0
0	10760	1108.291388232967	0
0	10761	1108.5	0
0	10763	1108.605035785706	0
0	10765	1108.71307455305	0
0	10784	1110.7353932431	0
0	10786	1111	0
0	10796	1113	0
0	10797	1113.5	0
0	10809	1115.5	0
0	10810	1116	0
0	10812	1116.078321136354	0
0	10831	1118.5	0
0	10859	1121.239466425967	0
0	10888	1123.544331445019	0
0	10929	1126.172764109591	0
0	10932	1126.496516047627	0
0	10955	1128.5	0
0	10957	1128.529967873024	0
0	10980	1131	0
0	10994	1133.693790667257	0
0	10997	1133.878299958159	0
0	11000	1134.661247156281	0
0	11014	1136	0
0	11016	1136.290346770688	0
0	11034	1138.628491797841	0
0	11037	1138.690512002497	0
0	11039	1138.736392767995	0
0	11065	1141.014148997892	0
0	11068	1141.145894507001	0
0	11086	1143.52360366016	0
0	11096	1144.676459274046	0
0	11099	1144.791192593153	1
0	11118	1146	0
0	11120	1146.136612795614	0
0	11131	1147.14580997396	0
0	11134	1147.155532651906	0
0	11146	1148.785037231609	0
0	11172	1151	0
0	11181	1152.416342653418	0
0	11189	1153.5	0
0	11191	1153.5001219226	0
0	11199	1154.5	0
0	11212	1156	0
0	11214	1156.447072139091	0
0	11225	1157.044453646116	0
0	11240	1158.687396864781	0
0	11246	1159.541223929984	0
0	11249	1159.89870038104	0
0	11251	1159.917771924985	0
0	11253	1159.945327547233	1
0	11268	1161	0
0	11283	1162.247502585794	0
0	11286	1162.271871317983	0
0	11298	1163.620484026234	0
0	11301	1164.5	0
0	11318	1166	0
0	11320	1166.117694832788	0
0	11322	1166.403811842221	0
0	11327	1167.210170777887	0
0	11344	1168.71723466915	0
0	11347	1168.948331771842	0
0	11351	1169.5	0
0	11402	1174.542539877326	0
0	11433	1176.368118871692	0
0	11441	1177.041345875216	0
0	11444	1177.109854226322	0
0	11460	1178.630625680762	0
0	11465	1179.5	0
0	11470	1181	0
0	11472	1181.137121119041	0
0	11484	1182	0
0	11502	1183.549642122181	0
0	11514	1184.848695499154	0
0	11529	1186.035836001979	0
0	11532	1186.048755524174	0
0	11534	1186.245520018057	1
0	11546	1187	0
0	11554	1188.559114768248	0
0	11561	1189.5	0
0	11563	1189.640589937578	0
0	11565	1189.804856925011	1
0	11574	1191	0
0	11585	1193.5	0
0	11590	1194.660443835839	0
0	11593	1194.831863029632	0
0	11595	1194.95693446525	0
0	11698	1203.788381957574	0
0	11722	1206	0
0	11724	1206.071629869348	0
0	11743	1208.203112059457	0
0	11745	1208.5	0
0	11768	1210.783154642771	0
0	11771	1211.071949528005	0
0	11777	1212.095399418027	0
0	11780	1212.314532378385	0
0	11784	1213	0
0	11786	1213.1154754809	0
0	11788	1213.2471154787	0
0	11792	1213.910049820176	0
0	11795	1213.975974832847	0
0	11806	1214.633393325699	0
0	11816	1215.615893909686	0
0	11819	1215.825973131097	0
0	11823	1216.327161814428	0
0	11834	1217	0
0	11839	1218.06783400004	0
0	11841	1218.5	0
0	11843	1218.582506306393	0
0	11855	1220.5	0
0	11857	1220.507990327437	0
0	11859	1220.723973867914	0
0	11861	1220.809957186595	0
0	11862	1221	0
0	11864	1221.13840631579	0
0	11866	1221.367272191923	0
0	11885	1223.5	0
0	11887	1223.937739195601	0
0	11889	1223.9888065446	0
0	11912	1226	0
0	11914	1226.029039929986	0
0	11933	1228.5	0
0	11935	1228.639509172468	0
0	11965	1231.398832643844	0
0	11994	1233.59990745781	0
0	12010	1236	0
0	12033	1238.079407409422	0
0	12036	1238.220620084137	0
0	12038	1238.354700079439	1
0	12039	1238.398569882763	0
0	12044	1238.578185028109	0
0	12047	1238.682292127426	0
0	12049	1238.683148259222	0
0	12051	1238.831045843768	0
0	12066	1240.750594283659	0
0	12068	1241	0
0	12070	1241.457582920851	0
0	12125	1246.24796444846	0
0	12154	1248.541242997009	0
0	12157	1248.904834742469	0
0	12159	1248.970075577945	0
0	12161	1248.988469504854	0
0	12199	1251.243604022664	0
0	12232	1253.809635466852	0
0	12235	1253.859267939772	0
0	12254	1256	0
0	12256	1256.256685157708	1
0	12257	1256.317517498734	0
0	12267	1257.069803592333	0
0	12276	1258.775175186755	0
0	12294	1260.853528344218	0
0	12296	1261	0
0	12298	1261.389037905661	0
0	12317	1263.199773102049	0
0	12320	1263.569397912885	0
0	12323	1263.845060030876	0
0	12325	1263.854385445947	0
0	12332	1264.641894736361	0
0	12335	1264.689395318119	0
0	12337	1264.75441015649	1
0	12338	1264.842051280001	0
0	12348	1266	0
0	12359	1267.36969245305	0
0	12367	1268.5	0
0	12369	1268.633430762388	0
0	12371	1268.695582071729	0
0	12377	1269.5	0
0	12390	1271	0
0	12394	1272	0
0	12396	1272.449982870787	1
0	12406	1273.76779155407	0
0	12422	1274.55536171637	0
0	12425	1274.564676617197	0
0	12427	1274.738829737632	1
0	12441	1276.253889304817	0
0	12444	1276.446568188888	0
0	12457	1278.5	0
0	12472	1281	0
0	12485	1282.21294722768	0
0	12493	1283.5	0
0	12499	1284.5	0
0	12501	1284.748582406272	1
0	12502	1284.788429784734	0
0	12505	1284.86101671973	0
0	12523	1286.427903149616	0
0	12539	1288.310599557216	0
0	12546	1288.668511232717	0
0	12549	1288.677158143127	0
0	12576	1291	0
0	12585	1292.234408398136	0
0	12593	1293.354791699631	0
0	12595	1293.5	0
0	12597	1293.794912618226	0
0	12609	1295.5	0
0	12611	1296.061787526696	0
0	12614	1296.124413024701	0
0	12625	1297.407740632785	0
0	12650	1299.553873321024	0
0	12653	1299.580006770569	0
0	12660	1300.740862860869	0
0	12667	1301.265530720333	0
0	12670	1301.268370320712	0
0	12694	1303	0
0	12696	1303.437093523772	0
0	12698	1303.67693734468	0
0	12745	1308.036073604449	0
0	12748	1308.259904804942	0
0	12750	1308.951325188897	0
0	12771	1310.5	0
0	12773	1310.581385976308	0
0	12775	1310.969417047536	0
0	12776	1311	0
0	12778	1311.035458456193	0
0	12794	1313	0
0	12796	1313.024812571997	0
0	12819	1315.5	0
0	12821	1315.745115183141	0
0	12842	1318	0
0	12844	1318.084016081597	0
0	12865	1320.5	0
0	12867	1320.516689858107	0
0	12869	1320.6735667646	0
0	12873	1321.07203083983	0
0	12876	1321.436535860339	0
0	12901	1323.474882783834	0
0	12906	1323.666256425306	0
0	12909	1323.754411793095	0
0	12935	1325.5	0
0	12937	1325.543814691505	1
0	12938	1325.905117975489	0
0	12943	1326.487280884206	0
0	12963	1328.484717182115	0
0	12965	1328.5	0
0	12984	1330.750429657863	0
0	12987	1330.770784838615	0
0	12988	1331	0
0	12990	1331.399870645	0
0	13013	1333.5	0
0	13015	1333.612132549791	1
0	13016	1333.680011180664	0
0	13049	1336.041237281358	0
0	13052	1336.161410691553	0
0	13073	1338.23221517192	0
0	13094	1340.639838035772	0
0	13108	1343	0
0	13110	1343.218248251292	1
0	13138	1345.519032616435	0
0	13149	1346.406861259587	0
0	13165	1348.284587442599	0
0	13168	1348.345884044207	0
0	13170	1348.524009878497	0
0	13186	1350.568102994138	0
0	13188	1351	0
0	13198	1353	0
0	13200	1353.382076430128	0
0	13201	1353.5	0
0	13203	1353.656137004902	0
0	13205	1353.767327778192	0
0	13232	1355.9948981573	0
0	13261	1358.496031525934	0
0	13266	1358.685038329641	0
0	13273	1360.5	0
0	13275	1360.8498313085	0
0	13277	1360.98672781861	0
0	13279	1360.992624946547	1
0	13283	1361.274266511221	0
0	13303	1363.250523857698	0
0	13306	1363.261025319767	0
0	13308	1363.322332741417	0
0	13312	1363.753135039607	0
0	13342	1365.563880273655	0
0	13345	1365.784529230903	0
0	13347	1365.827209839254	0
0	13349	1365.955039905464	0
0	13363	1367.454145582641	0
0	13370	1368	0
0	13372	1368.067411275786	1
0	13384	1368.935329597777	0
0	13416	1370.72601058673	0
0	13419	1370.928559577518	0
0	13431	1372.118057900907	0
0	13434	1372.478718546172	0
0	13441	1373.095262594084	0
0	13448	1373.876524957319	0
0	13453	1374.5	0
0	13455	1374.51107006382	0
0	13469	1376.3250800639	0
0	13490	1378.806822112459	0
0	13496	1379.727444220599	0
0	13499	1379.832095273887	0
0	13506	1380.614422672203	0
0	13508	1381	0
0	13510	1381.107298103119	0
0	13512	1381.157587434484	0
0	13514	1381.380583174657	0
0	13534	1383.53565900462	0
0	13537	1383.826302563797	1
0	13538	1383.836120210755	0
0	13546	1384.586376634651	0
0	13567	1386.398301564696	0
0	13575	1387.448277267995	0
0	13583	1388.231629085771	0
0	13586	1388.443332293685	0
0	13587	1388.5	0
0	13589	1388.640401129194	0
0	13604	1390.676637060541	0
0	13607	1390.848446765949	0
0	13609	1391.059537452067	0
0	13612	1391.363493500466	0
0	13622	1393	0
0	13624	1393.156001278917	0
0	13626	1393.447188342319	0
0	13628	1393.605722815683	0
0	13643	1395.5	0
0	13645	1395.737655919393	0
0	13649	1396.249087754838	0
0	13652	1396.315747648291	0
0	13654	1396.363186947	0
0	13675	1397.489571492778	0
0	13680	1398	0
0	13684	1398.750935998635	0
0	13713	1401.01171795904	0
0	13719	1402.407843711841	0
0	13722	1402.422897592972	0
0	13737	1403.108650976443	0
0	13742	1403.885299594965	0
0	13745	1403.921604820025	0
0	13762	1405.847482310989	0
0	13764	1406	0
0	13766	1406.051210038257	0
0	13768	1406.362657180765	0
0	13786	1408.861866087056	0
0	13812	1410.86240755027	0
0	13819	1411.224849562763	0
0	13831	1413.030166931679	0
0	13834	1413.347611386642	0
0	13835	1413.5	0
0	13837	1413.621068759006	1
0	13838	1413.817239437394	0
0	13841	1413.864728463982	1
0	13850	1414.594412899666	0
0	13853	1414.725451633515	0
0	13858	1415.955197565179	0
0	13867	1416.290533845859	0
0	13879	1417.453408957207	0
0	13900	1418.913246590615	0
0	13916	1420.645467215433	0
0	13919	1421.32045100548	0
0	13952	1423.578897187203	0
0	13972	1425.74209960987	0
0	14000	1428	0
0	14002	1428.83067395458	0
0	14020	1430.986480393241	0
0	14022	1431	0
0	14024	1431.362881904984	0
0	14049	1433.070417034563	0
0	14054	1433.626106136644	0
0	14057	1433.785684275858	0
0	14059	1433.813411566879	0
0	14092	1435.546848547386	0
0	14099	1436.12091447022	0
0	14102	1436.18343919139	1
0	14103	1436.363522557144	0
0	14127	1438.338053536062	0
0	14129	1438.5	0
0	14131	1438.658189692866	1
0	14136	1438.918868628279	0
0	14158	1441	0
0	14179	1443.281852360382	0
0	14181	1443.5	0
0	14183	1443.590494166254	0
0	14198	1445.640362535288	0
0	14203	1446.468954630662	0
0	14220	1448	0
0	14221	1448.5	0
0	14233	1450.5	0
0	14234	1451	0
0	14249	1453.065699282541	0
0	14252	1453.140051997302	0
0	14256	1453.650100993684	0
0	14304	1458.681204006088	0
0	14312	1459.687227550813	0
0	14320	1460.6719731066	0
0	14323	1460.959130767082	0
0	14325	1461.002854013194	0
0	14328	1461.398571700322	0
0	14337	1462.489402185799	0
0	14342	1463	0
0	14344	1463.282975385457	0
0	14346	1463.869500103221	0
0	14353	1464.5	0
0	14363	1465.5	0
0	14369	1466.138845756809	0
0	14372	1467	0
0	14378	1468	0
0	14379	1468.5	0
0	14385	1469.5	0
0	14393	1470.5	0
0	14395	1470.636537263831	0
0	14397	1470.658212279814	0
0	14401	1471.28427963208	0
0	14417	1472.352449357707	0
0	14424	1473	0
0	14436	1473.975283540009	0
0	14443	1474.5	0
0	14456	1475.929828552734	0
0	14459	1476.033821984006	0
0	14462	1476.432771497929	0
0	14467	1477.023328248572	0
0	14470	1477.091212908104	0
0	14479	1478.250008742834	0
0	14482	1478.542799541528	0
0	14487	1479.5	0
0	14489	1479.755842492659	0
0	14491	1479.911773525735	0
0	14498	1480.82670898134	0
0	14506	1482	0
0	14508	1482.231557467911	0
0	14517	1483.075080864431	0
0	14520	1483.140742100035	0
0	14547	1486.449298003315	0
0	14576	1488.569804798801	0
0	14579	1488.812423848323	0
0	14606	1491	0
0	14608	1491.361436473013	0
0	14638	1493.78397506162	0
0	14665	1496.391339192677	0
0	14690	1498.874015973007	0
0	14698	1499.94579563894	0
0	14708	1500.732103305789	0
0	14711	1500.795980846322	0
0	14713	1500.809702061055	0
0	14717	1501.071100904004	0
0	14720	1501.248067532561	1
0	14721	1501.259583398286	0
0	14724	1501.27900147937	1
0	14725	1501.399981370103	0
0	14743	1503.271570320946	0
0	14746	1503.4703577883	0
0	14760	1504.793525319287	0
0	14772	1505.735747262903	0
0	14775	1505.835759340947	0
0	14785	1506.426981049086	0
0	14791	1507.439258439042	0
0	14802	1508	0
0	14804	1508.571551935881	0
0	14815	1509.5	0
0	14817	1509.842128101195	1
0	14818	1509.953108903318	0
0	14823	1510.5	0
0	14825	1510.536803488729	0
0	14841	1512.297037803936	0
0	14851	1513.127697576641	0
0	14854	1513.503095011045	0
0	14857	1513.807417130454	0
0	14871	1515.5	0
0	14872	1516	0
0	14874	1516.028815858979	0
0	14876	1516.083554202513	1
0	14879	1516.164782290923	0
0	14882	1516.277368991654	1
0	14883	1516.313231366965	0
0	14899	1518.008547001966	0
0	14902	1518.178386710607	0
0	14904	1518.477941891993	0
0	14908	1518.547011652438	0
0	14911	1518.738975758826	0
0	14926	1520.769544448668	0
0	14929	1520.86964272417	0
0	14941	1521.401506200255	0
0	14972	1523.657580027057	0
0	14975	1523.985770849328	0
0	14984	1524.733352429213	0
0	14990	1525.966791113748	0
0	14992	1526	0
0	14994	1526.305235436453	0
0	14998	1527	0
0	15006	1528	0
0	15008	1528.464734862375	0
0	15009	1528.5	0
0	15011	1528.669536186596	0
0	15013	1528.723097907904	0
0	15015	1528.809918063153	0
0	15024	1529.725340246303	0
0	15027	1529.822469209718	0
0	15029	1529.842946569475	0
0	15046	1532	0
0	15048	1532.349759749663	0
0	15050	1532.395593454878	0
0	15057	1533.483594950182	0
0	15064	1533.671889589433	0
0	15067	1534.5	0
0	15069	1534.633729210087	0
0	15071	1534.728393445884	0
0	15073	1534.738068725262	0
0	15080	1535.745027306813	0
0	15083	1536.042816614461	0
0	15086	1536.307898777041	0
0	15088	1536.346018237313	0
0	15100	1537	0
0	15102	1537.220886888738	0
0	15104	1537.250972333175	0
0	15108	1538	0
0	15109	1538.5	0
0	15111	1538.862965928878	1
0	15114	1538.957851390707	0
0	15125	1539.5	0
0	15132	1541	0
0	15138	1542	0
0	15140	1542.000667675433	0
0	15142	1542.340995817544	1
0	15147	1543.194519427451	0
0	15150	1543.368499513589	0
0	15152	1543.436250775391	0
0	15154	1543.506799144706	0
0	15157	1543.598973448241	0
0	15172	1544.869415773202	0
0	15184	1545.80782643836	0
0	15187	1545.811296016929	0
0	15198	1547	0
0	15200	1547.407378174506	0
0	15204	1548	0
0	15214	1549.57059981516	0
0	15217	1549.770211725304	0
0	15219	1549.907249102251	0
0	15225	1551.11097928438	0
0	15228	1551.179959107075	0
0	15230	1551.33761803517	0
0	15249	1553.5	0
0	15442	1569.632313074309	0
0	15445	1569.711099887393	0
0	15503	1573.49271099939	0
0	15539	1576.23863932281	0
0	15584	1580.648750219042	0
0	15587	1580.957646349514	0
0	15605	1582.451714458701	0
0	15615	1583.46096029999	0
0	15618	1583.832820497444	0
0	15621	1583.996790082419	1
0	15629	1584.5	0
0	15638	1585.928306702977	0
0	15641	1586.000383262806	0
0	15644	1586.492850559679	0
0	15665	1588.067859614712	0
0	15683	1590.5	0
0	15685	1590.562914203944	0
0	15687	1590.852675319627	0
0	15691	1591.263215166729	0
0	15694	1591.467363459894	0
0	15716	1593	0
0	15718	1593.35953289812	1
0	15719	1593.407181027228	0
0	15721	1593.5	0
0	15723	1593.813253683656	0
0	15725	1593.959432279855	0
0	15743	1595.5	0
0	15744	1596	0
0	15755	1597.300676759733	0
0	15758	1597.40971812034	0
0	15767	1598.352857581001	0
0	15781	1599.5	0
0	15792	1600.793205021889	0
0	15795	1600.803220727408	0
0	15806	1602	0
0	15820	1604.660016028414	0
0	15830	1605.691117073713	0
0	15833	1606.147649097463	0
0	15836	1606.187353338362	0
0	15842	1607	0
0	15850	1608	0
0	15856	1608.883987660773	0
0	15865	1609.5	0
0	15867	1609.561434652863	0
0	15875	1610.5	0
0	15877	1610.552975532185	0
0	15879	1610.724580401248	0
0	15893	1612.117856039915	0
0	15896	1612.273759514817	0
0	15911	1613.381276365117	0
0	15949	1616.408396807965	0
0	15959	1617.469823522215	0
0	15971	1618.5	0
0	15973	1618.615802420305	0
0	15979	1619.5	0
0	15993	1621.153661171623	0
0	15996	1621.223940821168	0
0	16021	1623.373933221526	0
0	16030	1624.879731625838	0
0	16033	1624.944602695277	0
0	16035	1624.995355689091	0
0	16044	1625.769227991497	0
0	16057	1627.173300102794	0
0	16060	1627.295374351153	0
0	16062	1627.384303684309	0
0	16064	1627.457336740004	0
0	16076	1628.559382248398	0
0	16083	1629.5	0
0	16085	1629.72859312345	1
0	16092	1631	0
0	16094	1631.107379159438	0
0	16096	1631.128879406164	0
0	16098	1631.319218337421	0
0	16100	1631.401736573719	0
0	16114	1633.56205420842	0
0	16117	1633.620488602373	0
0	16131	1636.015256435575	0
0	16134	1636.372053115994	0
0	16139	1637.249970130216	0
0	16149	1638.219077242169	0
0	16152	1638.266664558049	1
0	16153	1638.345259527908	0
0	16156	1638.636710050401	0
0	16161	1639.5	0
0	16165	1640.5	0
0	16167	1640.518777776042	1
0	16168	1640.583181832743	0
0	16171	1640.954447418156	0
0	16172	1641	0
0	16180	1642	0
0	16182	1642.068482385241	0
0	16184	1642.242569191459	1
0	16185	1642.468120513561	0
0	16195	1643.123951322324	0
0	16198	1643.182342123046	0
0	16199	1643.5	0
0	16201	1643.611009015962	0
0	16203	1643.933955326582	1
0	16214	1644.524768906779	0
0	16217	1644.608555727138	0
0	16219	1644.753050459614	0
0	16230	1645.822520439899	0
0	16233	1645.893996975815	0
0	16244	1647	0
0	16246	1647.374749315514	1
0	16254	1648	0
0	16256	1648.326426038885	0
0	16266	1649.725930985577	0
0	16269	1649.77210753246	0
0	16285	1651.290894096655	0
0	16289	1652.022556961781	0
0	16305	1653.001162192798	0
0	16308	1653.044190891722	0
0	16309	1653.5	0
0	16311	1653.686086600044	0
0	16313	1654.5	0
0	16315	1654.684812153017	1
0	16316	1654.983629572328	0
0	16319	1654.98826919179	1
0	16322	1656	0
0	16327	1657.295899816661	0
0	16350	1658.705663201121	0
0	16353	1658.820254258881	1
0	16354	1658.897894580731	0
0	16357	1658.923077210988	0
0	16364	1659.644111048204	0
0	16377	1661.179929326122	0
0	16385	1662.209237038109	0
0	16397	1663.5	0
0	16409	1664.5	0
0	16421	1666.022297433343	0
0	16424	1666.394743037063	0
0	16439	1668.283738769965	0
0	16441	1668.5	0
0	16443	1668.832243234431	0
0	16452	1670.637047166272	0
0	16455	1670.765241747673	0
0	16457	1670.962853233363	1
0	16460	1671	0
0	16462	1671.258284986063	0
0	16464	1671.461392518025	0
0	16473	1672.222316299213	0
0	16479	1673.011486191251	0
0	16482	1673.194875457138	1
0	16483	1673.5	0
0	16496	1674.757257592448	0
0	16499	1674.860169194781	0
0	16501	1674.958008801202	0
0	16510	1676	0
0	16512	1676.419030627353	0
0	16539	1678.053815013031	0
0	16542	1678.275686072049	1
0	16543	1678.467442895459	0
0	16548	1678.527071945099	0
0	16551	1678.795533030495	0
0	16568	1680.674097090587	0
0	16570	1681	0
0	16572	1681.102956488202	1
0	16597	1683.001332467845	0
0	16600	1683.411791253722	0
0	16604	1683.619457225906	0
0	16607	1683.771627939996	1
0	16616	1684.999790840479	0
0	16628	1685.782188436693	0
0	16631	1685.870443034609	0
0	16648	1687	0
0	16650	1687.034001691917	0
0	16652	1687.058672535235	0
0	16671	1689.5	0
0	16673	1689.719391567905	1
0	16674	1689.724140868643	0
0	16677	1689.773605435079	0
0	16695	1691.062380659843	0
0	16698	1691.182665812913	0
0	16711	1692.225453517913	0
0	16714	1692.454043959747	0
0	16716	1692.469501250121	0
0	16738	1693.756532222308	0
0	16750	1694.756524823064	0
0	16753	1694.973683492743	0
0	16765	1696.218314364917	0
0	16768	1696.325557839185	0
0	16770	1696.40739395473	0
0	16772	1697	0
0	16774	1697.444038985486	0
0	16781	1698.5	0
0	16789	1699.5	0
0	16800	1701	0
0	16802	1701.324441897784	0
0	16804	1701.487878133798	0
0	16817	1702.212115433478	0
0	16831	1703.5	0
0	16837	1704.5	0
0	16847	1706.078357290251	0
0	16850	1706.22917892399	0
0	16852	1707	0
0	16867	1708.5	0
0	16878	1709.512444802269	0
0	16897	1711.429089939069	0
0	16902	1712	0
0	16904	1712.477570821229	0
0	16925	1714.5	0
0	16934	1715.576366984609	0
0	16941	1716.332890932349	0
0	16944	1716.470087757033	0
0	16957	1718.255137259762	0
0	16960	1718.560626804322	0
0	16963	1718.827754550774	0
0	16974	1719.671497270064	0
0	16985	1720.5	0
0	17001	1722.055933939101	0
0	17012	1723.609067477154	0
0	17023	1724.5	0
0	17025	1724.538555188296	0
0	17027	1724.789042860974	0
0	17036	1725.943443523177	0
0	17041	1726.452908096324	0
0	17044	1726.455811624781	0
0	17048	1727	0
0	17050	1727.477574472876	0
0	17057	1728.220638582463	0
0	17060	1728.346089584705	0
0	17062	1728.500703374474	0
0	17065	1728.805330358369	0
0	17071	1729.5	0
0	17077	1730.5	0
0	17079	1730.607793798734	0
0	17081	1730.646333134371	0
0	17082	1731	0
0	17100	1733.690806425018	0
0	17118	1735.536718875493	0
0	17121	1735.660703934922	0
0	17123	1736.21878063709	0
0	17129	1737.371199398101	0
0	17132	1738	0
0	17134	1738.335468071386	0
0	17135	1738.5	0
0	17141	1739.5	0
0	17143	1739.65096498708	1
0	17146	1739.782734475083	0
0	17149	1739.835848543108	0
0	17151	1739.957573345915	0
0	17164	1740.642907325788	0
0	17167	1740.713498050926	0
0	17169	1740.794578170892	0
0	17171	1740.855898690295	0
0	17175	1741.21738639837	0
0	17178	1741.469411095256	0
0	17198	1743.615019998263	0
0	17220	1745.919611518149	0
0	17222	1746	0
0	17224	1746.381911376956	0
0	17250	1748.715918651614	0
0	17281	1751.071575290275	0
0	17289	1752.244342217011	0
0	17292	1752.357414420512	1
0	17299	1753.068465824244	0
0	17302	1753.140867243397	1
0	17312	1753.799957491784	0
0	17332	1755.815404402019	0
0	17334	1756	0
0	17336	1756.494722251731	0
0	17343	1757.223963373345	0
0	17346	1757.311527574301	1
0	17352	1758	0
0	17353	1758.5	0
0	17360	1759.956513415749	0
0	17368	1761	0
0	17370	1761.248526887523	0
0	17374	1762	0
0	17376	1762.010739846784	0
0	17385	1763.196572640556	0
0	17390	1763.634101150272	0
0	17393	1763.999493595042	1
0	17399	1764.5	0
0	17401	1764.811737474284	0
0	17417	1766.261033071067	0
0	17420	1766.499707610582	0
0	17427	1767.092762965251	0
0	17448	1769.821675266449	0
0	17451	1769.921779523675	0
0	17477	1771.286815339078	0
0	17487	1773.5	0
0	17489	1773.91782176668	0
0	17509	1776.051222459188	0
0	17541	1778.486638223386	0
0	17544	1778.654330303289	0
0	17547	1778.72410994284	1
0	17565	1780.5	0
0	17567	1780.71097034481	0
0	17569	1780.732488143695	0
0	17571	1780.814585570167	1
0	17572	1780.938772826446	0
0	17603	1783.105182416389	0
0	17612	1783.688711123374	0
0	17615	1783.826781821788	0
0	17622	1784.705557394519	0
0	17625	1784.733897653645	0
0	17644	1786	0
0	17651	1787.170561241465	0
0	17659	1788.5	0
0	17661	1788.899171342213	1
0	17664	1788.996423883013	0
0	17670	1789.520530456516	0
0	17673	1789.626727307617	0
0	17682	1791	0
0	17690	1792	0
0	17692	1792.151645695576	0
0	17716	1793.80689196823	0
0	17722	1794.733857328176	0
0	17736	1795.855157483948	0
0	17738	1796	0
0	17740	1797	0
0	17748	1798	0
0	17750	1798.068506426929	1
0	17751	1798.092993664615	0
0	17753	1798.5	0
0	17761	1799.5	0
0	17763	1799.892541762708	0
0	17769	1800.5	0
0	17771	1800.736722303415	0
0	17772	1801	0
0	17774	1801.384401591449	0
0	17785	1802.46824166093	0
0	17795	1803.093943669191	0
0	17798	1803.34800133146	0
0	17800	1803.451927567464	0
0	17815	1804.5	0
0	17817	1804.556792470466	1
0	17818	1804.845378086166	0
0	17824	1805.767213620389	0
0	17827	1805.924882104047	0
0	17837	1806.443144164001	0
0	17844	1807	0
0	17846	1807.126762154175	0
0	17856	1808.570923054216	0
0	17859	1808.769463848787	1
0	17860	1808.852617530765	0
0	17871	1809.5	0
0	17876	1811	0
0	17878	1811.230365197969	0
0	17899	1813.366659034581	0
0	17901	1813.5	0
0	17903	1813.717668134878	0
0	17927	1815.5	0
0	17929	1815.798878427816	0
0	17931	1815.949539202741	0
0	17935	1816.191386927868	0
0	17947	1817.470379871188	0
0	17954	1818	0
0	17956	1818.131775203515	0
0	17958	1818.165140639887	0
0	17960	1818.256355626553	0
0	17962	1818.399009390607	0
0	17964	1818.412498317937	1
0	17968	1818.712556618113	0
0	17975	1819.5	0
0	17993	1821.185001649922	0
0	17996	1821.486376639426	0
0	18002	1822	0
0	18004	1822.419881912676	0
0	18032	1824.646252726936	0
0	18049	1826.031727362427	0
0	18052	1826.102332846077	0
0	18054	1826.141943588974	0
0	18056	1826.215077343625	0
0	18058	1826.398310757048	0
0	18070	1827	0
0	18072	1827.394918722649	0
0	18090	1828.741104033867	0
0	18093	1828.92568163411	0
0	18113	1829.5	0
0	18130	1831	0
0	18132	1831.193495558319	0
0	18134	1831.388801935993	1
0	18140	1832	0
0	18147	1833.107336464362	0
0	18150	1833.218494475913	0
0	18164	1834.760520787043	0
0	18167	1834.917961696913	0
0	18175	1835.5	0
0	18177	1835.809642122098	0
0	18192	1837	0
0	18194	1837.075278271076	0
0	18200	1838	0
0	18202	1838.488935637431	0
0	18221	1839.5	0
0	18223	1839.544286252417	1
0	18224	1839.563665941114	0
0	18227	1839.776595135903	0
0	18236	1840.612274674363	0
0	18241	1841.183111150777	0
0	18250	1842	0
0	18252	1842.318526295298	0
0	18254	1842.4072762103	0
0	18267	1843.263111674183	0
0	18270	1843.426255444124	0
0	18276	1843.723528441591	0
0	18285	1844.5	0
0	18287	1844.670207385204	0
0	18292	1845.616256351488	0
0	18294	1846	0
0	18296	1846.023177277678	0
0	18305	1847.16761153189	0
0	18308	1847.176078784354	0
0	18310	1847.43326116841	1
0	18311	1847.442351939591	0
0	18316	1848	0
0	18318	1848.519083568171	0
0	18323	1849.5	0
0	18327	1850.5	0
0	18329	1850.789990641769	1
0	18330	1850.851811036777	0
0	18333	1850.934462349994	1
0	18334	1850.947887280917	0
0	18336	1851	0
0	18338	1851.210602723942	0
0	18340	1851.39302087937	0
0	18342	1851.467036589878	0
0	18350	1852	0
0	18352	1852.185046652714	0
0	18370	1853.678921478423	0
0	18377	1854.5	0
0	18392	1855.811259369048	0
0	18395	1856.056648983673	0
0	18409	1858.273297869701	0
0	18411	1858.5	0
0	18420	1859.841299361302	0
0	18428	1860.967072701038	0
0	18430	1861	0
0	18432	1861.274989703451	0
0	18440	1862	0
0	18442	1862.3194755459	0
0	18444	1862.449366519916	1
0	18450	1863	0
0	18452	1863.722494933753	0
0	18460	1864.749081752079	0
0	18472	1865.730531227995	0
0	18475	1866.007178220864	0
0	18478	1866.23340444786	0
0	18480	1866.31117555862	1
0	18484	1867	0
0	18486	1867.056765549702	0
0	18488	1867.05809330862	0
0	18494	1868	0
0	18509	1869.5	0
0	18517	1871.174622913457	0
0	18522	1872	0
0	18527	1873.244711497263	0
0	18529	1873.5	0
0	18537	1874.5	0
0	18539	1874.955325648044	0
0	18541	1875.5	0
0	18543	1875.570903779677	1
0	18544	1875.595317135501	0
0	18547	1875.773623863941	0
0	18568	1878.517996221095	0
0	18571	1878.959251046829	0
0	18573	1878.998230122863	0
0	18594	1880.824865412591	0
0	18597	1880.829083915367	0
0	18599	1881.132047339726	0
0	18602	1881.176449264283	0
0	18604	1881.290559503617	1
0	18605	1881.426724376556	0
0	18614	1883	0
0	18616	1883.719779820575	0
0	18622	1884.683774500458	0
0	18625	1885.5	0
0	18627	1885.972361832924	0
0	18628	1886	0
0	18645	1887.067482739471	0
0	18648	1887.088088945037	0
0	18650	1887.209582100811	0
0	18659	1888.5	0
0	18661	1888.681552136585	0
0	18663	1888.798367752144	0
0	18668	1889.560959502524	0
0	18671	1889.781893691104	1
0	18685	1891.148488856413	0
0	18688	1891.35612545302	0
0	18699	1893.5	0
0	18706	1894.586289355605	0
0	18709	1894.676000362332	0
0	18731	1896.042384164267	0
0	18734	1896.429163363029	1
0	18736	1897	0
0	18738	1897.23146722798	0
0	18740	1897.344805164405	0
0	18742	1897.355128505128	0
0	18752	1898.500286636541	0
0	18755	1898.608568685247	0
0	18757	1899.5	0
0	18762	1900.587330738321	0
0	18765	1900.99839000352	1
0	18766	1901	0
0	18772	1902	0
0	18783	1903.329937197677	0
0	18786	1903.403055186234	0
0	18788	1903.486358100497	0
0	18800	1904.699091598105	0
0	18803	1904.757867017075	0
0	18805	1904.941444131808	0
0	18815	1905.5	0
0	18835	1907.03303311201	0
0	18838	1907.179076017363	1
0	18850	1908.616672426659	0
0	18864	1910.86235200223	0
0	18866	1911	0
0	18868	1911.153600606696	0
0	18870	1911.375165794172	1
0	18884	1913	0
0	18886	1913.51600835737	0
0	18889	1913.71922586186	1
0	18907	1915.5	0
0	18909	1915.619112422224	0
0	18911	1915.722973300486	1
0	18914	1915.797896765225	0
0	18919	1916.062853014853	0
0	18947	1918.270638403188	0
0	18949	1918.5	0
0	18966	1919.854011642041	0
0	18979	1921.097869189938	0
0	18982	1921.335138504946	0
0	18986	1922	0
0	18988	1922.227565296114	0
0	18995	1923.5	0
0	18997	1923.646568034775	1
0	19000	1923.714668935674	0
0	19009	1924.5	0
0	19011	1924.650064763797	0
0	19030	1927	0
0	19032	1927.164298871268	0
0	19034	1927.204197326124	1
0	19035	1927.26227828898	0
0	19045	1928.462709311907	0
0	19054	1928.986652117887	0
0	19063	1929.5	0
0	19065	1929.885216812622	1
0	19066	1929.980407526515	0
0	19093	1932.343324637197	0
0	19096	1932.359397084298	0
0	19123	1934.5	0
0	19125	1934.658551333993	0
0	19148	1937	0
0	19150	1937.216203931532	0
0	19166	1938.873822690429	0
0	19171	1939.5	0
0	19173	1939.685404768293	0
0	19191	1942.135683417325	0
0	19194	1942.386351390669	0
0	19203	1943.202296443831	0
0	19208	1943.929578402006	0
0	19223	1945.5	0
0	19224	1946	0
0	19226	1946.19745356527	0
0	19229	1947.277326692254	0
0	19239	1948.102412848803	0
0	19241	1948.5	0
0	19243	1948.962944340615	1
0	19253	1949.5	0
0	19255	1950.5	0
0	19263	1951.454560199005	0
0	19278	1953	0
0	19279	1953.5	0
0	19284	1954.621308403303	0
0	19289	1955.5	0
0	19291	1955.707947958321	1
0	19292	1956	0
0	19294	1956.372059852208	0
0	19301	1957.000638297196	0
0	19305	1958.413241372386	0
0	19307	1958.5	0
0	19311	1959.5	0
0	19313	1959.853794087217	1
0	19317	1960.5	0
0	19318	1961	0
0	19320	1961.125048000734	0
0	19322	1961.211902317859	0
0	19331	1962.054279512016	0
0	19341	1963.5	0
0	19343	1963.795326567137	0
0	19345	1963.825250934324	0
0	19347	1963.908022278875	1
0	19348	1963.909811490212	0
0	19393	1968.240815869301	0
0	19396	1968.352214160302	0
0	19398	1968.38101021603	0
0	19400	1968.545360434222	0
0	19403	1968.557687276858	0
0	19405	1968.580894943276	1
0	19406	1968.693328225374	0
0	19430	1970.554897362717	0
0	19433	1971.278027112075	0
0	19449	1973.389618410699	0
0	19452	1973.820601781152	0
0	19467	1975.5	0
0	19469	1975.622431990031	0
0	19471	1975.945287685529	0
0	19492	1978.540148649557	0
0	19495	1978.790285510611	0
0	19519	1981.194525972723	0
0	19533	1983.086281186291	0
0	19535	1983.5	0
0	19564	1986	0
0	19566	1986.075227784054	1
0	19567	1986.097133968373	0
0	19570	1986.380768626873	0
0	19572	1986.414015365043	0
0	19589	1988.5	0
0	19591	1988.571039450925	1
0	19592	1988.838749052422	0
0	19595	1988.925203760236	0
0	19606	1989.965836210758	0
0	19621	1991.018903113903	0
0	19624	1991.251789021993	1
0	19627	1991.449861411478	0
0	19630	1991.487821831939	1
0	19634	1992	0
0	19636	1992.039046751114	1
0	19639	1992.308654027963	0
0	19654	1993.849706707021	0
0	19666	1994.923597498404	0
0	19669	1994.924701360866	0
0	19679	1996.060328387335	0
0	19682	1996.358449140188	0
0	19685	1997.150886846527	0
0	19688	1997.415499548088	0
0	19695	1998.255717064209	0
0	19697	1998.5	0
0	19699	1998.81536949799	1
0	19710	1999.808722647356	0
0	19715	2000.5	0
0	19717	2000.801604379823	0
0	19728	2002	0
0	19730	2002.45855747184	0
0	19741	2003.060811203329	0
0	19744	2003.206565993615	0
0	19746	2003.375440481524	1
0	19747	2003.413076349492	0
0	19761	2004.5	0
0	19763	2004.789096849688	0
0	19779	2006.257423357762	0
0	19782	2006.313305822791	0
0	19786	2007	0
0	19788	2007.075410712268	0
0	19790	2007.083093663905	1
0	19791	2007.311325056044	0
0	19799	2008.265803121471	0
0	19801	2008.5	0
0	19803	2008.917461832817	1
0	19813	2010.5	0
0	19815	2010.556563191704	0
0	19819	2011.325154245996	0
0	19822	2011.491203264913	1
0	19834	2013	0
0	19836	2013.375264001105	0
0	19846	2014.517952482516	0
0	19869	2016.495929021145	0
0	19874	2017	0
0	19887	2018.074742635723	0
0	19890	2018.316307009056	0
0	19892	2018.636566170455	0
0	19895	2018.656107159877	0
0	19897	2018.695772667036	0
0	19899	2018.845040163819	0
0	19906	2019.573828932653	0
0	19909	2019.574788181827	1
0	19910	2019.848478926246	0
0	19917	2020.5	0
0	19919	2020.700264322018	0
0	19921	2020.996403165757	0
0	19922	2021	0
0	19931	2022.216304749446	0
0	19937	2023.163082648419	0
0	19940	2023.584681450506	0
0	19952	2024.800555940656	0
0	19957	2025.5	0
0	19959	2025.501775825426	0
0	19961	2025.663352840932	0
0	19963	2026.124082796852	0
0	19966	2026.141987900295	0
0	19970	2027	0
0	19972	2027.039841843419	1
0	19973	2027.063507553302	0
0	19979	2028.5	0
0	19981	2028.517019905129	0
0	19983	2028.603572545662	0
0	19987	2029.5	0
0	19989	2029.708287877317	0
0	19991	2029.790005914857	0
0	19998	2031	0
0	20000	2031.114484000414	0
0	20002	2031.261215863012	0
0	20017	2033.5	0
0	20030	2034.898931015774	0
0	20042	2035.914875790876	0
0	20056	2037	0
0	20058	2038	0
0	20060	2038.039238581268	0
0	20062	2038.102918479172	0
0	20080	2039.667042091368	0
0	20083	2039.911436814012	0
0	20085	2039.964983958751	0
0	20091	2040.5	0
0	20093	2040.642285450687	1
0	20096	2040.924277860325	0
0	20105	2041.423792148785	0
0	20119	2042.434189535698	0
0	20124	2043	0
0	20126	2043.126359758798	0
0	20127	2043.5	0
0	20129	2043.616360096427	1
0	20130	2043.648366514145	0
0	20133	2043.955229788012	1
0	20141	2044.5	0
0	20147	2045.5	0
0	20149	2045.91786808351	1
0	20159	2048.272008579437	0
0	20164	2048.587760670665	0
0	20170	2049.653439579937	0
0	20175	2050.5	0
0	20177	2050.800444687487	0
0	20179	2050.929076024824	1
0	20181	2051.081514365245	0
0	20186	2052	0
0	20189	2053.499987354857	0
0	20194	2053.974143491843	0
0	20201	2054.5	0
0	20212	2056	0
0	20214	2056.020690033375	0
0	20216	2057	0
0	20225	2058.5	0
0	20227	2058.545803214311	0
0	20229	2058.574718325676	1
0	20230	2058.905253884762	0
0	20237	2059.5	0
0	20239	2059.799381340664	1
0	20240	2059.803291170133	0
0	20259	2061.015520885929	0
0	20267	2062.250489809757	0
0	20270	2062.376915204628	0
0	20272	2062.38298989348	0
0	20274	2062.450898360191	0
0	20281	2063.190689939438	0
0	20290	2063.966924545137	0
0	20309	2065.5	0
0	20311	2065.715875118272	0
0	20343	2068.430303494657	0
0	20346	2068.643644545843	0
0	20349	2068.782531471966	0
0	20351	2068.846313742505	1
0	20361	2070.5	0
0	20363	2070.757564693104	1
0	20365	2071.18474449858	0
0	20388	2073.729718093919	0
0	20391	2073.804498875893	0
0	20406	2074.678449651801	0
0	20423	2076.231260711282	0
0	20429	2077.266602236427	0
0	20432	2077.332331913263	0
0	20444	2078.841408776052	0
0	20482	2081	0
0	20484	2081.016471329039	1
0	20485	2081.13607990803	0
0	20488	2081.427080124063	0
0	20505	2083.179365186493	0
0	20510	2083.639440890531	0
0	20530	2085.568785754793	0
0	20533	2085.624613801238	0
0	20535	2085.654997277313	0
0	20536	2086	0
0	20553	2088.363137721951	0
0	20556	2088.432965281417	1
0	20557	2088.5	0
0	20578	2091	0
0	20580	2091.058460216777	1
0	20581	2091.372136477563	0
0	20597	2093.5	0
0	20599	2093.971037712731	0
0	20619	2096.394895271081	0
0	20633	2097.348661364979	0
0	20645	2098.5	0
0	20647	2098.930801248517	0
0	20651	2099.5	0
0	20664	2100.952067053745	0
0	20667	2101.058666700164	0
0	20670	2101.268460782736	0
0	20672	2101.397917522589	0
0	20679	2102.152276271234	0
0	20682	2102.365792355524	0
0	20684	2102.402076191224	0
0	20692	2103	0
0	20694	2103.327729358553	0
0	20707	2104.5	0
0	20713	2105.5	0
0	20715	2105.651129606497	0
0	20717	2105.739277347101	0
0	20719	2105.785418670997	0
0	20721	2105.832477381563	0
0	20725	2106.072463615399	0
0	20728	2106.22245654641	0
0	20743	2108.097571392572	0
0	20748	2108.682233769135	0
0	20761	2110.5	0
0	20763	2110.935204573478	1
0	20764	2111	0
0	20766	2111.261477625949	0
0	20768	2111.492491018059	0
0	20770	2111.952994229259	0
0	20783	2113.5	0
0	20792	2114.970624952592	0
0	20795	2114.970871235296	1
0	20804	2116	0
0	20806	2116.045044644801	1
0	20809	2116.160723535151	0
0	20816	2116.851281058155	0
0	20834	2118.522436290373	0
0	20837	2118.888787747437	1
0	20842	2118.963431011641	0
0	20845	2119.326447986018	0
0	20848	2119.479216481498	0
0	20868	2121	0
0	20870	2121.496314110275	0
0	20880	2121.888054061623	0
0	20883	2121.917172541112	0
0	20897	2123.189597790783	0
0	20899	2123.5	0
0	20901	2123.650014998679	0
0	20903	2124.418878189435	0
0	20919	2125.5	0
0	20921	2125.746801580008	0
0	20922	2126	0
0	20924	2126.241822157141	0
0	20926	2126.413610229241	0
0	20936	2128	0
0	20938	2128.447504744651	0
0	20940	2128.558148059492	0
0	20943	2129.043111328532	0
0	20946	2129.490799148275	0
0	20959	2130.5	0
0	20961	2130.906181932986	0
0	20963	2130.970002919888	0
0	20965	2131.035891386189	0
0	20968	2131.337579802951	0
0	20986	2133	0
0	20987	2133.5	0
0	20989	2133.61321829965	0
0	21001	2135.5	0
0	21003	2135.849506719927	0
0	21005	2136.212415212819	0
0	21027	2138.187792519976	0
0	21030	2138.475738726323	0
0	21031	2138.5	0
0	21033	2138.504837180426	0
0	21043	2140.5	0
0	21045	2140.813755055193	0
0	21066	2143	0
0	21068	2143.62597374002	0
0	21071	2143.74422224488	0
0	21073	2143.881884620861	0
0	21079	2144.24592271027	0
0	21082	2144.488043101964	0
0	21094	2145.664413688442	0
0	21097	2145.852889371736	0
0	21099	2145.921085471619	0
0	21104	2146.814721729822	0
0	21113	2148.153482571835	0
0	21116	2148.269788853896	1
0	21117	2148.384473503327	0
0	21127	2149.30683273021	0
0	21130	2149.411727340673	1
0	21135	2150.5	0
0	21137	2150.671404802381	0
0	21139	2151.306295778697	0
0	21152	2153	0
0	21154	2153.379904104476	0
0	21164	2153.703004341923	0
0	21169	2154.025514857218	0
0	21174	2154.524521281974	0
0	21177	2154.64386486175	0
0	21179	2154.799712191974	0
0	21181	2155.5	0
0	21183	2155.983327721028	0
0	21189	2156.376126506243	0
0	21192	2157	0
0	21194	2157.30447836902	0
0	21196	2157.366072480952	0
0	21198	2157.424404645778	1
0	21207	2158.358935622883	0
0	21209	2158.5	0
0	21211	2158.534047839048	0
0	21213	2158.76896026437	1
0	21214	2158.926346307168	0
0	21217	2158.965771394373	0
0	21240	2160.828944876687	0
0	21257	2163.27559234335	0
0	21260	2163.536579032961	0
0	21264	2164.825289641665	0
0	21267	2164.864504480975	0
0	21271	2165.5	0
0	21272	2166	0
0	21274	2166.225874110346	0
0	21276	2166.256591992888	1
0	21279	2166.346681274609	0
0	21285	2167.035360177663	0
0	21297	2168.491954608928	0
0	21300	2168.492434961371	0
0	21302	2168.718755668221	0
0	21308	2169.816114059976	0
0	21315	2170.5	0
0	21323	2171.314820636404	0
0	21326	2171.447452246006	0
0	21330	2172	0
0	21332	2172.2589205444	1
0	21335	2172.437161176934	0
0	21341	2173.5	0
0	21343	2173.509203944415	0
0	21345	2173.570948846042	1
0	21355	2174.5	0
0	21357	2174.74961433244	0
0	21359	2174.783662799002	0
0	21366	2175.926877792353	0
0	21369	2175.947392318849	0
0	21373	2176.357243090384	0
0	21379	2177.102015840647	0
0	21404	2179.698724373309	0
0	21407	2179.706291869463	0
0	21413	2181.070996951819	0
0	21416	2181.14440853143	1
0	21417	2181.173301905404	0
0	21422	2182	0
0	21424	2182.473168681915	0
0	21433	2183.132792821362	0
0	21436	2183.373486180019	0
0	21442	2183.828384430655	0
0	21459	2186.49255587859	0
0	21481	2188.386358083586	0
0	21483	2188.5	0
0	21493	2190.5	0
0	21494	2191	0
0	21516	2193	0
0	21518	2193.369510848852	0
0	21520	2193.456572839657	0
0	21522	2193.592898320187	0
0	21525	2193.751352481021	1
0	21545	2195.5	0
0	21547	2195.629807985523	0
0	21549	2195.754754982721	0
0	21555	2196.496169914486	0
0	21575	2198.318172565037	0
0	21577	2198.5	0
0	21586	2199.578502215384	0
0	21589	2199.680786302582	0
0	21602	2200.947970570402	0
0	21625	2202.125459698067	0
0	21628	2202.29502694256	0
0	21635	2203.01840550264	0
0	21638	2203.043102778793	1
0	21649	2204.5	0
0	21651	2204.799956004795	0
0	21653	2204.891015274236	1
0	21675	2206.245024220952	0
0	21678	2206.402589674583	1
0	21679	2206.445902079335	0
0	21687	2207.447858448631	0
0	21697	2208.404031100108	0
0	21699	2208.5	0
0	21701	2208.592627083258	0
0	21703	2209.5	0
0	21705	2209.66260422843	1
0	21706	2209.687706190188	0
0	21720	2210.528439960445	0
0	21723	2210.653910030726	0
0	21724	2211	0
0	21726	2211.308909368486	0
0	21728	2211.428364130206	0
0	21740	2213	0
0	21742	2213.022568927082	0
0	21744	2213.11454120549	0
0	21746	2213.961221367586	0
0	21764	2215.724261495158	0
0	21766	2216	0
0	21786	2218	0
0	21805	2220.5	0
0	21813	2221.326312797208	0
0	21834	2223	0
0	21836	2223.213865270474	0
0	21840	2223.789509154573	0
0	21846	2224.538253244057	0
0	21856	2226	0
0	21858	2226.247031553106	1
0	21866	2227	0
0	21888	2229.502365118394	0
0	21908	2232	0
0	21910	2232.498055077822	0
0	21943	2236.107039449341	0
0	21946	2236.165756993831	0
0	21948	2236.177585696988	0
0	21961	2238.5	0
0	21974	2239.633413315939	0
0	21977	2239.683883418365	0
0	21979	2239.8735944539	0
0	21981	2239.927246919254	0
0	21989	2241.020449086186	0
0	21992	2241.379086067675	0
0	21996	2242	0
0	21998	2242.397405186674	0
0	22003	2243.5	0
0	22005	2243.698473681453	0
0	22007	2244.5	0
0	22014	2246	0
0	22020	2247	0
0	22022	2247.464713872117	0
0	22040	2248.728984721941	0
0	22043	2248.842862328502	0
0	22054	2249.932881722206	0
0	22072	2251	0
0	22104	2253.826311427836	0
0	22118	2254.677508063099	0
0	22136	2256	0
0	22139	2257.119933025174	0
0	22145	2258.192612590195	0
0	22148	2258.3527477035	0
0	22149	2258.5	0
0	22151	2258.573349827813	1
0	22152	2258.891792145588	0
0	22155	2258.953015093386	0
0	22159	2259.5	0
0	22161	2259.634818962717	0
0	22163	2259.867913035581	0
0	22176	2260.656626800972	0
0	22178	2261	0
0	22186	2262	0
0	22192	2263	0
0	22194	2263.284542169235	0
0	22196	2263.343129605381	1
0	22197	2263.422891419094	0
0	22202	2263.876047674643	0
0	22219	2265.5	0
0	22221	2266.142349623541	0
0	22224	2266.299315629134	0
0	22226	2266.403517069345	0
0	22241	2268.37183129621	0
0	22243	2268.5	0
0	22245	2268.824298449081	0
0	22265	2270.5	0
0	22267	2270.658795079535	0
0	22269	2270.691331677787	1
0	22270	2270.722207150303	0
0	22273	2271.095265225819	0
0	22297	2273.5	0
0	22299	2273.969522197683	0
0	22328	2276	0
0	22330	2276.083547556704	1
0	22331	2276.125746142337	0
0	22359	2278.5	0
0	22361	2278.56737185156	0
0	22363	2278.674187861705	0
0	22365	2278.72219295637	1
0	22366	2278.75277860816	0
0	22383	2281.059470832143	0
0	22386	2281.474049377364	0
0	22399	2283.37139571171	0
0	22402	2283.549191799728	0
0	22405	2283.813708490678	1
0	22426	2285.860018674815	0
0	22429	2285.961138214002	0
0	22431	2286.050339460264	0
0	22434	2286.289874679291	1
0	22435	2286.405525513592	0
0	22438	2286.455812021048	1
0	22456	2288	0
0	22458	2288.308503774183	0
0	22460	2288.480060422078	0
0	22468	2288.813132790571	0
0	22485	2290.5	0
0	22487	2290.560943216206	0
0	22489	2291.148841931187	0
0	22508	2293	0
0	22510	2293.011307078558	0
0	22512	2293.219173385838	0
0	22513	2293.5	0
0	22535	2295.5	0
0	22539	2296.090613483913	0
0	22542	2296.461130827839	0
0	22572	2298.918000413969	0
0	22590	2301	0
0	22592	2301.269017604512	0
0	22617	2303.5	0
0	22695	2311.13831600569	0
0	22728	2313.709391776651	0
0	22731	2313.873437075546	0
0	22765	2316.154242202516	0
0	22768	2316.221776256273	1
0	22784	2318.776404577928	0
0	22810	2321	0
0	22832	2323.979221815161	0
0	22858	2326	0
0	22860	2326.134197153433	1
0	22907	2331.047379029636	0
[...]
17	24277	2463.194790924323	2.825412156389
17	24279	2463.247433602227	3.721082485649
17	24369	2473.079523018112	2.500122892183
17	24371	2473.154561303255	4.743918268215
17	24433	2478.021360786303	1.49391498918
17	24435	2478.057045982232	0.886998521335
17	24454	2480.771045472247	1.074250287028
17	24456	2480.867670991237	0.436980636474
17	24517	2488.499273469009	4.226099621986
17	24542	2490.847685549473	4.650179965451
17	24544	2490.861395081368	3.505319606697
17	24546	2490.893338333216	7.187807088391
17	24579	2493.057611084014	3.115555212594
17	24583	2493.179059673419	3.619983536929
17	24606	2495.535312790875	3.409093393991
17	24608	2495.624766277839	2.464856910349
17	24614	2495.936184557562	4.8479402064
17	24616	2495.974252949396	0.120412652865
17	24682	2500.701499640916	4.430314569434
17	24684	2500.95739816744	2.652017469404
17	24705	2503.390149534312	4.344937247798
17	24707	2503.452758485409	7.44700229134
17	24734	2505.84191562961	2.252529937091
17	24736	2505.954566223196	1.057293661263
17	24765	2508.346902632668	1.282026155649
17	24767	2508.410518987057	0.618557307458
17	24817	2513.382817250541	0.111443979078
17	24859	2518.177353795422	1.903811817027
17	24861	2518.37115346368	0.302418592121
17	24940	2525.566052043918	3.489513284038
17	24942	2525.690746097857	3.08554951478
17	24969	2528.11814278182	7.393655477023
17	24971	2528.206720575369	5.56191710022
17	24988	2530.817870216174	4.499528724482
17	25021	2533.240161346378	3.813568610859
17	25058	2535.656185001001	4.264629179842
17	25064	2535.874918254172	6.458939279539
17	25089	2538.057987146204	2.396265458262
17	25091	2538.058680825373	3.945871172947
17	25093	2538.457402802677	1.502144254037
17	25162	2545.535311008496	0.089262921948
17	25195	2548.207937882894	0.703605549823
17	25224	2550.50842413647	2.572253814153
17	25255	2553.194909798154	3.40464973273
17	25282	2555.851562959854	2.664797025327
17	25340	2560.907298070787	6.603514848017
17	25373	2563.086507016842	7.23643173129
17	25406	2565.864353120027	9.628274179028
17	25410	2565.991015168531	8.972494714199
17	25474	2570.758197038491	19.185764678148
17	25478	2570.99817639033	5.013913948852
17	25534	2575.553003952058	20.905410408674
17	25538	2575.735308979168	7.221674418094
17	25540	2575.773791412835	7.225951185094
17	25561	2578.201472267839	12.206111110545
17	25565	2578.350761621459	24.165863176152
17	25621	2583.296527847066	8.745604096797
17	25623	2583.417309665465	8.394303383877
17	25640	2585.561281068225	8.863845172315
17	25684	2590.761035513208	16.985757307456
17	25688	2590.907579012129	9.688920256111
17	25740	2595.808385142008	15.071935963891
17	25771	2598.091682543869	27.629669050977
17	25773	2598.203752104454	6.893518176496
17	25775	2598.282207673988	6.931837636914
17	25796	2600.962989787562	7.451915006824
17	25815	2603.027009784562	13.637528219994
17	25819	2603.202221344433	29.428054931568
17	25821	2603.371317759791	8.334143678238
17	25844	2605.727628659071	1.72765782736
17	25867	2608.077717123825	0.926360888542
17	25878	2610.6726553291	0.677136692105
17	25897	2613.002249948402	1.728466507752
17	25928	2615.775699706825	2.254058728926
17	25951	2618.001893699556	0.43532841059
17	25953	2618.371318038143	0.646568239589
17	26009	2623.319376672415	2.640785042906
17	26011	2623.373245190767	1.674150371761
17	26013	2623.385839177931	1.213351480766
17	26015	2623.441397991666	0.868897922167
17	26057	2628.340767786972	2.450243157417
17	26066	2630.976027803955	3.64061017868
17	26098	2635.553217537644	8.105848841565
17	26117	2638.078711830754	6.914435686472
17	26119	2638.22358348451	11.574304153958
17	26148	2640.678055327122	9.674343561648
17	26183	2643.145606174426	7.615519667105
17	26185	2643.404034528199	4.091363509513
17	26222	2645.509336839589	8.235627977309
17	26224	2645.546528215231	3.282366008106
17	26226	2645.565394530026	4.978689445738
17	26230	2645.833520377894	0.221559597909
17	26261	2648.464803294643	1.686668188114
17	26286	2650.713350987064	1.163590897031
17	26332	2655.699448531983	0.881752606327
17	26388	2660.552339214694	1.99152052645
17	26419	2663.041745736562	2.1430533682
17	26448	2665.996454316543	0.007591630997
17	26465	2668.445142438412	0.39957843139
17	26492	2670.558264807664	2.032476156567
17	26554	2675.871093994167	3.270913895837
17	26565	2678.214825600675	3.26349080703
17	26567	2678.248941559008	9.542348168342
17	26590	2680.624832771703	4.526452757417
17	26623	2683.169729970103	1.294664557846
17	26650	2685.854083234911	3.316866861592
17	26667	2688.030378446126	2.570239838565
17	26700	2690.824273704741	0.626338175248
17	26723	2693.392718007331	1.857629377136
17	26752	2695.565391192151	3.401245666468
17	26754	2695.850364695121	0.625596553651
17	26775	2698.032320005735	1.420405859925
17	26779	2698.48088698883	0.403852533696
17	26802	2700.577846981021	0.178390049556
17	26864	2705.838262113179	0.304063714127
17	26910	2710.962494586671	2.596294229362
17	26952	2715.584665173501	4.046712979661
17	26954	2715.827595976968	3.895399253514
17	26983	2718.049335696228	3.375911128552
17	26987	2718.345279740765	8.466105259934
17	27037	2723.407896308317	2.638596112185
17	27064	2725.556873939797	7.925506740616
17	27173	2738.07609592838	2.754710023568
17	27175	2738.262435783508	0.767431824578
17	27215	2743.309320393219	2.48883820886
17	27245	2748.227473211295	2.797000029102
17	27322	2755.670025343233	11.086819378855
17	27324	2755.788697821901	6.604549017998
17	27326	2755.919543130119	0.905650229614
17	27380	2760.605557409883	2.091060622941
17	27399	2763.005134008098	1.650267774404
17	27424	2765.569508600056	0.374156051853
17	27445	2768.285058298134	2.65639663679
17	27447	2768.287751350642	1.699470516029
17	27489	2773.039586425506	2.361805945156
17	27491	2773.286263508528	1.396510245486
17	27493	2773.354518903419	1.272772694593
17	27548	2780.500255301091	6.061851625428
17	27552	2780.606182049892	5.497608616187
17	27556	2780.824698115832	0.226887280188
17	27600	2785.660283596168	1.956881589848
17	27640	2790.68344152514	1.959802781168
17	27642	2790.945873636616	0.801579086898
17	27678	2795.732490353182	2.385662048164
17	27705	2798.040243124235	1.812026093418
17	27774	2805.62095654161	0.524773905657
17	27797	2808.065920024083	1.119436102939
17	27878	2815.684885590371	2.510038631204
17	27880	2815.836529574316	5.08200219436
17	27884	2815.927721599094	0.014970318552
17	27909	2818.00033680098	2.068177789159
17	27934	2820.708214766904	0.999970811172
17	27965	2823.006064217582	0.459742098459
17	28015	2828.017797482157	3.343098539575
17	28040	2830.744833135528	4.661815121915
17	28063	2833.030247891701	0.071841217692
17	28071	2833.49066831961	0.252782828353
17	28134	2840.51214864992	0.590956223407
17	28161	2843.3089578951	1.533699517376
17	28244	2850.559361422227	8.27218803767
17	28246	2850.995096959382	7.464147363848
17	28292	2855.542183626784	3.476133669579
17	28296	2855.782485930632	6.36840937848
17	28298	2855.853052155786	1.312498065441
17	28315	2858.086296100907	2.364348436715
17	28317	2858.140861526514	2.178993935067
17	28319	2858.194883305035	2.73309296142
17	28321	2858.24693332285	0.996697521179
17	28336	2860.651238099362	1.749731116567
17	28355	2863.328658801625	1.28694877359
17	28393	2868.019858659059	0.396686046606
17	28435	2873.132775173217	3.389730283337
17	28452	2875.54638192572	2.535274548968
17	28460	2875.73068495812	2.004675974722
17	28508	2880.78680037402	3.435253641153
17	28512	2880.929496222029	5.045407782777
17	28535	2883.181491567119	3.916070353016
17	28570	2885.725826178093	0.686190525048
17	28634	2890.593365154745	2.871510846093
17	28651	2893.3714272827	7.113682341683
17	28682	2895.550966251009	7.2905976082
17	28709	2898.008570342738	0.080977474247
17	28738	2900.653554620535	0.588610941217
17	28780	2905.537651172829	0.408997133999
17	28782	2905.546622707876	0.055247184465
17	28849	2913.332197978236	0.122300732367
17	28870	2915.686503454763	0.514630274796
17	28899	2918.450731921046	0.824004241122
17	28926	2920.555858794789	2.774932208575
17	28928	2920.730861277306	2.207378299115
17	28957	2923.361077852961	4.530327716656
17	28959	2923.408104987341	2.254661533203
17	29007	2928.043104485014	0.944063641773
17	29009	2928.426100026958	0.949852899044
17	29040	2930.892718219407	1.512316497214
17	29065	2933.269151418682	2.861711926214
17	29092	2935.88364019421	3.163352473074
17	29136	2940.750755330327	3.985804685108
17	29138	2940.839612509642	2.645588579771
17	29167	2943.009113954849	10.682975902323
17	29177	2943.497495018268	0.456864807999
17	29238	2950.53057052232	4.454407888714
17	29284	2955.823165689365	2.342316779039
17	29325	2958.076669818982	3.777587624925
17	29346	2960.918753554605	4.243456383656
17	29394	2965.568488152869	4.632733442007
17	29396	2965.609245141666	7.699455348666
17	29400	2965.959109067736	12.18352451434
17	29429	2968.009432595285	4.433400134425
17	29446	2970.655873169006	0.888968825244
17	29494	2975.676777302845	1.111500919768
17	29515	2978.302554205062	1.770095156849
17	29546	2980.58387854689	2.039961301699
17	29711	2998.064258292126	8.332932031984
17	29715	2998.225794749563	4.666411514544
17	29717	2998.302265402602	4.51640962941
17	29721	2998.443532064881	4.172413627081
17	29744	3000.881960535912	5.117813492008
17	29765	3003.242170835208	6.600559861406
17	29794	3005.644768897553	7.082073473755
17	29819	3008.011422719541	18.758701388039
17	29821	3008.174818688731	6.22737795942
17	29850	3010.720482455025	15.436337479334
17	29873	3013.2221756094	13.65843747692
17	29875	3013.238509526347	11.285540697143
17	29879	3013.426726084537	4.581821344345
17	29898	3015.522118221377	11.872260141931
17	29900	3015.539934737144	6.688530423834
17	29904	3015.780653613154	0.270622290887
17	29906	3015.821492970896	0.150521670957
17	29963	3023.465757331267	5.969249793851
17	29965	3023.478838105931	7.401815932376
17	29990	3025.613759804418	2.217887520815
17	30011	3028.00756044208	4.150316920781
17	30013	3028.485064656204	3.458300811806
17	30044	3030.587976765288	3.580285242255
17	30048	3030.730555642602	13.872218127788
17	30071	3033.2206115803	3.696503028636
17	30073	3033.311015799561	3.29045186303
17	30098	3035.647924116476	3.500024456204
17	30100	3035.990434983976	3.475093195542
17	30131	3038.287146503212	3.230211623606
17	30146	3040.578213653225	11.701569296186
17	30148	3040.797620133322	4.401291717675
17	30150	3040.953416902033	5.714906559133
17	30190	3045.548572618117	1.692374564622
17	30192	3045.647480561765	0.335825571095
17	30217	3048.234167889036	0.198161074167
17	30246	3050.571746609926	0.362086908427
17	30261	3053.485586266693	1.793881058037
17	30319	3058.215535292717	2.549498283888
17	30323	3058.327555786224	1.816966195613
17	30325	3058.418693690159	0.211644145056
17	30358	3060.506922699567	1.492678167837
17	30362	3060.908982459685	1.328140547353
17	30400	3065.513610410792	1.8827339696
17	30425	3068.111199523277	1.756948271999
17	30427	3068.217221595042	1.57498452987
17	30454	3070.71177976436	3.495052827788
17	30471	3073.167641929469	3.425110622573
17	30475	3073.422701376439	2.671322492552
17	30502	3075.650776004078	4.58333433591
17	30504	3075.794532854663	8.674135600788
17	30521	3078.053613745363	1.340239200054
17	30548	3080.52252303015	0.811861540024
17	30571	3083.332885509445	0.028322612204
17	30596	3085.959974866545	0.794653181674
17	30647	3093.031300049649	2.242862818042
17	30649	3093.286221971262	1.010891249876
17	30722	3100.620108398839	2.140968640326
17	30724	3100.838837159193	1.351411201177
17	30791	3108.333750727401	0.072066933286
17	30797	3108.46128124092	0.122928318714
17	30818	3110.546711581778	1.902584985102
17	30851	3113.309373207741	1.336391358077
17	30853	3113.328481006311	0.142208295752
17	30897	3118.334426210043	2.122428864001
17	30922	3120.569210897695	2.262558708181
17	30928	3120.739894419159	3.961511211455
17	30930	3120.746997503991	0.045623011586
17	30968	3125.969067983248	1.389156251261
17	31004	3130.750457629024	2.022761600736
17	31008	3130.869010622224	0.009165889178
17	31131	3143.154897613266	3.73247150396
17	31160	3145.672621745309	7.388749211141
17	31162	3145.796832795862	2.601099616633
17	31185	3148.009070852533	7.183587777762
17	31187	3148.419603851305	3.014936058476
17	31189	3148.487709515266	5.222615595168
17	31210	3150.973882568417	4.256651198916
17	31229	3153.069835054733	4.534080321773
17	31231	3153.470241645269	4.77174326953
17	31268	3155.579070205611	9.26428222447
17	31272	3155.69616977069	3.983625149808
17	31274	3155.71991575361	6.717105766498
17	31316	3160.596399541161	0.010409791255
17	31356	3165.830098892499	3.471507135092
17	31371	3168.098606334821	0.891906158204
17	31392	3170.637773512669	0.649418325528
17	31417	3173.29678399186	0.703118217534
17	31444	3175.507806308721	0.753540136253
17	31446	3175.750314184887	0.623635087936
17	31496	3180.674207610544	2.436189627028
17	31500	3180.808673586393	3.466477846419
17	31519	3183.392512822521	3.05815380263
17	31521	3183.439259200841	4.100195352996
17	31538	3185.876314730705	1.598764616886
17	31571	3188.281433518116	1.952530799717
17	31650	3195.680063474674	0.987458385955
17	31785	3208.486769264723	4.21922723533
17	31806	3210.556968415464	6.704480948613
17	31808	3210.709157698511	5.152881945618
17	31829	3213.013638193273	4.451054763635
17	31856	3215.602849403008	1.891327400144
17	31860	3215.68275769822	0.884653722541
17	31885	3218.124309208517	3.027321549823
17	31887	3218.173229853529	2.516007131589
17	31889	3218.179370621209	3.263171083847
17	31891	3218.371199446952	1.505911628532
17	31914	3220.847277372073	1.048787072256
17	31962	3225.509734478425	5.517420967012
17	31991	3228.361205676134	4.32963681752
17	32024	3230.588350916335	4.394245104291
17	32049	3233.227279662324	3.993150719504
17	32051	3233.263960937952	9.735285007198
17	32080	3235.644951165072	0.265264482147
17	32111	3238.105673444666	0.115751509408
17	32171	3243.075058698862	0.789928889546
17	32173	3243.110664492926	0.727793879423
17	32227	3248.301986974893	0.887234138635
17	32260	3250.503857162426	1.808618265389
17	32264	3250.621870018897	1.47028388224
17	32297	3253.478907273012	0.024216335846
17	32351	3258.221111241707	2.302824566367
17	32353	3258.294278416002	2.839041425036
17	32357	3258.484589857688	1.78973955602
17	32378	3260.597007485893	2.104072154371
17	32380	3260.804412120259	2.332373718774
17	32424	3265.593002918496	1.960421731899
17	32451	3268.441936770949	0.80633793678
17	32476	3270.976239506928	1.254355843241
17	32497	3273.098434664251	1.97272585794
17	32499	3273.237112397729	0.16315222028
17	32520	3275.808945426825	1.979278166711
17	32535	3278.047525801111	3.43683208616
17	32558	3280.830511841374	2.297627593302
17	32604	3285.69806097499	5.18825374534
17	32606	3285.791716535407	0.943328458117
17	32623	3288.045786356131	1.582297195169
17	32648	3290.889706112994	1.420995686831
17	32679	3293.443144991496	0.865886721452
17	32748	3300.682789931756	4.212115470615
17	32773	3303.082346591327	9.618299894151
17	32777	3303.315628114737	4.802519130465
17	32779	3303.364219833447	3.193216547118
17	32781	3303.44377746243	5.732376400483
17	32823	3308.016487597281	2.398616905534
17	32827	3308.423203148753	0.095534308832
17	32863	3313.360711445014	4.443710187851
17	32921	3318.093401393512	0.62631771853
17	32942	3320.659621973626	2.27118859746
17	32959	3323.247222645493	2.552060436406
17	32961	3323.372303659114	0.475435400959
17	33032	3330.607040123501	1.595720230603
17	33057	3333.343588675999	2.188503304199
17	33105	3338.398352545875	0.520539498869
17	33250	3350.557237619714	6.991143936812
17	33252	3350.861614307154	4.255242859177
17	33254	3350.864578116673	2.758532534257
17	33291	3353.319284073176	8.767672601423
17	33293	3353.345080072613	0.690555732145
17	33320	3355.865713602233	0.173307279644
17	33380	3360.647403182917	0.244257400871
17	33384	3360.990481775582	0.133810748145
17	33403	3363.159026001045	0.960346963645
17	33409	3363.348487524948	0.322108698424
17	33415	3363.487595222179	0.097754920025
17	33442	3365.636347651841	2.202504135979
17	33526	3375.548447616055	1.372121128149
17	33553	3378.267962096639	1.554615593972
17	33578	3380.517178322776	2.904498342235
17	33580	3380.664688884813	0.221246172164
17	33601	3383.079797927877	0.569401568789
17	33667	3388.407343680594	1.34755553914
17	33669	3388.427737276885	0.355488156377
17	33690	3390.533827232347	0.351116700799
17	33808	3400.517804493022	3.155827835218
17	33810	3400.651681138597	3.507296926374
17	33835	3403.272170896329	3.604962380445
17	33889	3408.415737471725	3.908878519473
17	33908	3410.515740694759	2.842064474589
17	33914	3410.837198266335	3.361704598118
17	33916	3410.930452799187	2.175173729245
17	33966	3415.610910634179	1.262510503589
17	34004	3420.585484909471	3.737629174962
17	34006	3420.614927258431	4.814925154977
17	34008	3420.764063547226	1.583234698104
17	34010	3420.799503538207	1.217918750589
17	34071	3428.159006849778	2.554595097881
17	34073	3428.297724023983	1.218878360536
17	34121	3433.297592270896	3.538311350676
17	34123	3433.31335570908	4.373234060487
17	34148	3435.570158111826	2.003160699797
17	34150	3435.93491627145	1.976560776165
17	34332	3455.614967911888	6.778759540932
17	34334	3455.717091592733	4.72268475761
17	34353	3458.03665437083	6.717309268474
17	34380	3460.733314209836	15.355164412459
17	34382	3460.970937179593	6.869601250991
17	34413	3463.238602828967	5.684453982095
17	34489	3468.434964634732	9.603417336471
17	34526	3470.8950761909	12.969943085848
17	34557	3473.319101681422	8.603881549705
17	34559	3473.388642682587	20.460666280763
17	34563	3473.467429250578	7.012010403989
17	34582	3475.547424338327	8.227670628331
17	34584	3475.724684727884	8.113623583796
17	34586	3475.764575032091	31.084941075249
17	34615	3478.001398309189	7.684028389495
17	34655	3483.043256947937	9.004588457762
17	34657	3483.30508145734	13.322748300875
17	34680	3485.549921499079	21.846973477195
17	34725	3488.401653350799	11.632514474062
17	34752	3490.68164654018	2.340435820511
17	34754	3490.887435924609	23.878171520357
17	34825	3498.260424643339	2.192539989488
17	34827	3498.388670225813	0.483137493135
17	34856	3500.580555561939	1.765187156435
17	34858	3500.780397201348	0.920566405367
17	34860	3500.974851726422	0.909554127459
17	34904	3505.73505467659	1.341123280832
17	34929	3508.042889726174	2.146668063214
17	34931	3508.347727432217	3.325951894775
17	34950	3510.731029997641	4.348292875833
17	35010	3515.53200738736	2.384109286221
17	35012	3515.761424371468	2.590938106429
17	35016	3515.891789533454	2.884098294529
17	35041	3518.040038336924	2.533810718412
17	35122	3525.705132094215	2.430216640944
17	35124	3525.961009133872	1.927233518328
17	35149	3528.155313839851	2.059511970418
17	35172	3530.693840926383	1.849431442127
17	35210	3535.76247783646	3.516185863059
17	35237	3538.335077007136	3.028477359644
17	35283	3543.370953458527	5.695842124659
17	35298	3545.956910750774	4.985818302629
17	35317	3548.076411407709	6.039980918336
17	35319	3548.159975832939	5.50877549637
17	35321	3548.178305110327	5.092395700507
17	35323	3548.279079378949	18.523620280429
17	35346	3550.507772797678	12.967434313778
17	35350	3550.911731546646	2.065516959631
17	35379	3553.224152909154	2.286040571445
17	35383	3553.471487387935	2.209567604354
17	35404	3555.674668443181	2.404509025514
17	35462	3560.538312964417	9.177104619343
17	35464	3560.918263626386	5.047071648096
17	35489	3563.16145970738	3.285598962239
17	35491	3563.166773103118	3.190897815167
17	35497	3563.483203169081	4.248783012817
17	35510	3565.684401117172	2.436385777445
17	35514	3565.908078258953	4.466767795227
17	35533	3568.189569053062	4.354927363013
17	35535	3568.246106294081	1.250815816828
17	35550	3570.641767547363	2.102379933585
17	35552	3570.698480523311	0.865477298187
17	35589	3573.386941793732	2.680429557058
17	35645	3578.199368760706	3.079780817005
17	35649	3578.43817996396	4.335931855479
17	35676	3580.727944981145	4.461236017448
17	35734	3585.963519971822	5.777260087422
17	35755	3588.045828644546	7.120335331506
17	35757	3588.205163739423	8.989103347863
17	35759	3588.421898296293	7.113121838964
17	35798	3590.858375722707	11.096605634199
17	35800	3590.919366515036	5.926866742731
17	35857	3598.412279643768	9.054234919372

