version 2
run Net1-0-20200110-19:22:53-20345
attr configname Net1
attr datetime 20200110-19:22:53
attr experiment Net1
attr inifile omnetpp.ini
attr iterationvars ""
attr iterationvarsf ""
attr measurement ""
attr network Net
attr processid 20345
attr repetition 0
attr replication #0
attr resultdir results
attr runnumber 0
attr seedset 0
param **.gen.interArrivalTime exponential(0.5s)
param **.sys.serviceTime exponential(0.4s)
param **.sys.queue_size 15
param **.gen.numberofpriority 10
param **.sys.numberofpriority 10
param **.sys.preemption true

vector 0 Net.sys responseTime3:vector ETV
attr interpolationmode none
attr title "response time at end of service, vector"
attr unit s
vector 1 Net.sink lifetime:vector ETV
attr interpolationmode none
attr title "lifetime of arrived msg, vector"
attr unit s
vector 2 Net.sink arrivedMsg:vector ETV
attr interpolationmode none
attr title "number of arrived msg, vector"
vector 3 Net.sys qlen7:vector ETV
attr interpolationmode sample-hold
attr title "queue length, vector"
vector 4 Net.sys responseTime6:vector ETV
attr interpolationmode none
attr title "response time at end of service, vector"
attr unit s
vector 5 Net.sys queueingTime7:vector ETV
attr interpolationmode none
attr title "queueing time at dequeue, vector"
attr unit s
vector 6 Net.sys qlen5:vector ETV
attr interpolationmode sample-hold
attr title "queue length, vector"
vector 7 Net.sys queueingTime5:vector ETV
attr interpolationmode none
attr title "queueing time at dequeue, vector"
attr unit s
vector 8 Net.sys responseTime5:vector ETV
attr interpolationmode none
attr title "response time at end of service, vector"
attr unit s
vector 9 Net.sys qlen6:vector ETV
attr interpolationmode sample-hold
attr title "queue length, vector"
vector 10 Net.sys queueingTime6:vector ETV
attr interpolationmode none
attr title "queueing time at dequeue, vector"
attr unit s
vector 11 Net.sys qlen9:vector ETV
attr interpolationmode sample-hold
attr title "queue length, vector"
vector 12 Net.sys qlen2:vector ETV
attr interpolationmode sample-hold
attr title "queue length, vector"
vector 13 Net.sys responseTime1:vector ETV
attr interpolationmode none
attr title "response time at end of service, vector"
attr unit s
vector 14 Net.sys queueingTime2:vector ETV
attr interpolationmode none
attr title "queueing time at dequeue, vector"
attr unit s
vector 15 Net.sys responseTime2:vector ETV
attr interpolationmode none
attr title "response time at end of service, vector"
attr unit s
vector 16 Net.sys responseTime0:vector ETV
attr interpolationmode none
attr title "response time at end of service, vector"
attr unit s
vector 17 Net.sys qlen3:vector ETV
attr interpolationmode sample-hold
attr title "queue length, vector"
vector 18 Net.sys queueingTime3:vector ETV
attr interpolationmode none
attr title "queueing time at dequeue, vector"
attr unit s
vector 19 Net.sys qlen8:vector ETV
attr interpolationmode sample-hold
attr title "queue length, vector"
vector 20 Net.sys responseTime7:vector ETV
attr interpolationmode none
attr title "response time at end of service, vector"
attr unit s
vector 21 Net.sys queueingTime8:vector ETV
attr interpolationmode none
attr title "queueing time at dequeue, vector"
attr unit s
vector 22 Net.sys responseTime8:vector ETV
attr interpolationmode none
attr title "response time at end of service, vector"
attr unit s
vector 23 Net.sys queueingTime9:vector ETV
attr interpolationmode none
attr title "queueing time at dequeue, vector"
attr unit s
vector 24 Net.sys responseTime9:vector ETV
attr interpolationmode none
attr title "response time at end of service, vector"
attr unit s
vector 25 Net.sys responseTime4:vector ETV
attr interpolationmode none
attr title "response time at end of service, vector"
attr unit s
vector 26 Net.sys qlen4:vector ETV
attr interpolationmode sample-hold
attr title "queue length, vector"
vector 27 Net.sys queueingTime4:vector ETV
attr interpolationmode none
attr title "queueing time at dequeue, vector"
attr unit s
vector 28 Net.sys qlen1:vector ETV
attr interpolationmode sample-hold
attr title "queue length, vector"
vector 29 Net.sys queueingTime1:vector ETV
attr interpolationmode none
attr title "queueing time at dequeue, vector"
attr unit s
vector 30 Net.sys qlen0:vector ETV
attr interpolationmode sample-hold
attr title "queue length, vector"
vector 31 Net.sys queueingTime0:vector ETV
attr interpolationmode none
attr title "queueing time at dequeue, vector"
attr unit s
0	3	0.359424155394	0.359424155394
0	17	2.27191733759	0.390802570557
0	59	6.920581742871	1.373102076092
0	107	13.361580077276	0.735833258559
0	139	16.329552582113	0.04182449031
0	159	18.120975078857	0.18084082409
0	203	24.7678105787	0.046782163917
0	237	30.619042003244	2.692488288484
0	267	35.057904496056	0.153080379545
0	321	42.628406789555	1.703648205312
0	333	43.259456343526	0.001882616197
0	533	73.767878127655	0.212001151255
0	551	76.714391695596	0.217942851258
0	577	82.371257743373	0.873818952185
0	613	86.254539483716	0.487518721337
0	683	93.783009114613	1.061222935438
0	695	94.900456381069	0.99050022178
0	769	104.213595982844	0.46524531337
0	795	107.357688607578	1.502323953163
0	801	107.628155130754	0.187470590391
0	809	108.226257131634	0.130086407191
0	813	108.579771394047	0.362640847218
0	881	116.41565789466	0.362800985381
0	883	116.457932764302	1.245879275716
0	961	127.915496159439	0.170614324815
0	1119	150.056262045819	1.041831500631
0	1125	150.945304068874	0.603286092651
0	1141	152.096566528751	0.127433539152
0	1167	156.396538158644	0.292618135653
0	1171	156.56746660297	0.146580516733
0	1279	168.366528130421	0.787578507753
0	1429	184.690931385346	0.894476875751
0	1487	190.392474986218	0.105912909335
0	1529	196.648129386489	0.177333758401
0	1551	198.738675196566	0.156864515849
0	1635	209.054609420236	0.370655440119
0	1641	210.344735853723	1.370413973829
0	1659	212.045150645017	1.700802762165
0	1661	212.253995166781	3.038385679307
0	1701	216.935230350769	0.701948708783
0	1705	218.301200311742	1.576654498395
0	1707	218.375046660905	1.447637675625
0	1727	220.716275908783	1.507904067973
0	1805	227.25258510448	0.136869876646
0	1829	230.681777455813	1.858280672511
0	1917	243.868934126484	1.380404051744
0	1963	247.751157417331	0.179331722645
0	2033	255.862208099148	3.173968865659
0	2151	272.209120705355	1.150804672733
0	2233	284.026830282841	0.401443895062
0	2305	292.091679014436	0.534627366929
0	2307	292.138195681143	0.168858172047
0	2317	293.088796526315	0.485902283427
0	2323	294.090630304272	0.880326749746
0	2383	301.301501901229	0.062327674444
0	2393	301.712603287188	0.251312285897
0	2423	304.932819622472	0.479559304352
0	2439	306.416864671607	0.745233152538
0	2601	327.136725164343	0.097571867945
0	2651	332.873206154789	1.046546357904
0	2703	338.101698695716	0.20990417763
0	2751	343.60368131705	0.991761529521
0	2755	343.786991142272	0.940254536525
0	2757	344.305173807842	1.144716139254
0	2761	344.604559501811	1.343023365097
0	2771	345.011084176565	0.026642054896
0	2843	352.80374853212	0.441778721994
0	2845	353.119539170055	0.700866998833
0	2851	354.124525145047	0.855791009193
0	2881	358.576014267558	0.495778863512
0	2931	364.283881927662	1.746925758374
0	2933	364.777513938358	3.085014559485
0	2937	365.094379459371	0.157970116837
0	2971	368.867397917173	0.18863828818
0	3067	380.785391781489	0.040569913356
0	3095	384.858370683445	2.63331859859
0	3099	385.019460783963	0.021010436143
0	3147	390.039546545736	0.065447765404
0	3183	395.5020965136	0.198987990969
0	3197	397.156252040588	0.153628628679
0	3255	405.606039772302	0.030040468346
0	3261	406.361811706891	0.131464823068
0	3263	407.293302061763	1.027109068913
0	3379	422.349712591599	1.037172060207
0	3407	426.31307792993	0.310449271046
0	3457	433.896797231552	1.285082918267
0	3479	438.358253220707	0.219767805163
0	3487	438.906230952974	0.413668495507
0	3583	450.341611850852	0.50230754472
0	3617	454.080343089842	0.065962702376
0	3649	457.974309749345	0.893645053164
0	3697	465.73144197714	0.898033669426
0	3753	473.519964682261	0.265459070093
0	3771	475.14039847237	0.232910132461
0	3835	484.991898792203	0.707445354003
0	3943	497.920130145068	0.013742002863
0	3985	503.521175545677	0.745586836615
0	4005	507.338197908569	0.48163907029
0	4081	517.513295526942	0.59428510706
0	4125	523.562471226653	2.501617712585
0	4191	530.738757616709	0.510194731098
0	4307	549.767860377468	0.078371737575
0	4349	555.4909620081	2.437220311449
0	4353	555.651509193298	1.671134040964
0	4367	556.344344317927	0.165165950251
0	4379	558.1207151932	0.47462097662
0	4397	562.381528926782	0.110141210956
0	4415	564.591032557019	0.285356447321
0	4419	565.81128805385	0.116394048343
0	4459	572.029140925613	0.319703390856
0	4515	582.932293102177	0.438491728907
0	4523	583.563563377469	0.584742926641
0	4525	583.839650805378	0.728641485964
0	4605	590.985532069163	0.466777979905
0	4625	594.179979694504	1.97532740025
0	4629	595.437399527929	1.396000880462
0	4647	598.290211832894	0.648231460245
0	4667	600.234979232316	0.074500500757
0	4783	615.214346219915	2.196887203202
0	4785	615.266428694174	1.755279687781
0	4799	616.428952725426	5.837788454444
0	4801	616.51484250972	0.819915215688
0	4839	623.170488179369	0.305408906764
0	4875	627.935659274896	0.600506570941
0	4889	629.052629990828	0.134125057165
0	4891	629.096550613471	0.055013551343
0	4965	640.307518037107	0.154167287878
0	4985	642.709790011881	0.233984844997
0	4991	642.930508005828	0.015398253956
0	5021	646.116915064225	0.248740155997
0	5029	647.923045920903	0.303282788152
0	5043	649.834155149035	0.304129833409
0	5077	654.79565803593	0.103374112017
0	5131	662.621401184255	0.328743445615
0	5167	667.820100993437	2.07854246044
0	5217	676.058026094542	0.483977257026
0	5285	685.425941237586	0.409288314437
0	5287	685.700471712714	0.330760958215
0	5387	697.840760599418	0.061755616406
0	5425	702.702374238527	1.578003087119
0	5427	702.920945231992	0.363675639836
0	5479	709.365639866354	0.071298506379
0	5499	711.487314942806	0.526919641286
0	5527	716.569518922024	1.221989079507
0	5611	728.299695395928	2.19003131843
0	5615	729.461248179664	3.268499607536
0	5647	732.844267262541	0.054104398378
0	5689	738.729692219826	0.446662208138
0	5751	746.314891439759	0.808167686815
0	5769	748.070490995189	0.587646992151
0	5779	748.958052189396	0.004086783177
0	5801	751.923184261532	2.152408271828
0	5871	759.685228718151	0.222464443009
0	5901	761.868627591099	1.070594173499
0	5903	762.283569004902	1.018133434442
0	5915	763.525263587005	0.125737033586
0	5947	767.189696646274	0.333923733159
0	5989	770.595027251565	0.388943362535
0	6047	777.942024645988	0.770851332271
0	6063	780.668275123039	0.099015165987
0	6103	788.493306624356	0.32941254972
0	6119	791.608754900003	0.378485118976
0	6141	794.017492880094	1.063009548528
0	6177	803.19831858083	0.372827728556
0	6253	812.379660332189	0.082987273371
0	6275	815.784140645114	0.877921523641
0	6299	818.929536330488	2.093457014449
0	6363	826.670903929064	0.22238583115
0	6381	829.022023420994	2.0538839339
0	6455	839.093328871013	1.370789699845
0	6499	843.930880358144	0.606324386332
0	6531	847.358138080103	0.34297562732
0	6575	853.319438728546	1.366774389165
0	6579	853.403126067958	1.387937451196
0	6581	853.552450074143	0.196197227132
0	6591	854.308202232083	0.083341885649
0	6615	856.742564770602	0.056134849936
0	6635	859.222642094854	2.046339671806
0	6651	860.725207367079	0.575001831995
0	6653	861.297377149943	1.079623864553
0	6711	869.638063193777	0.556677855375
0	6719	869.906817069744	0.118452476621
0	6763	876.48497147133	0.383489820412
0	6789	878.71764166292	0.064517823889
0	6815	881.222353421616	0.115350569903
0	6853	883.375598159069	0.266948248607
0	6873	885.837949960938	0.796023535294
0	6931	893.016218351088	3.181624236595
0	6949	894.588915843656	0.036697340852
0	6961	896.246982627209	0.396745962329
0	6987	899.383684283442	0.116597796655
0	7007	902.408548269515	0.17416952429
0	7009	902.478049956089	0.182614427683
0	7049	906.107130727914	0.034023302441
0	7057	906.695710002048	0.075517220687
0	7071	907.750846307255	0.834865663261
0	7079	908.437353295562	0.282251231185
0	7159	918.560892188012	1.582980778701
0	7161	919.017128983509	1.046034939912
0	7231	926.372291236652	3.092486269887
0	7233	926.397989146742	2.956814411916
0	7283	935.510671387923	0.142208051775
0	7323	940.218900719519	1.000125438979
0	7335	941.935488064109	0.212427945332
0	7521	970.15942365258	0.697747036598
0	7523	970.376479113469	1.811998268746
0	7571	976.049262105627	0.082250475507
0	7609	982.025331885348	1.702790275663
0	7815	1010.318234136578	0.466521877217
0	7841	1014.873280650024	1.122147880753
0	7913	1023.644607579272	5.469867178748
0	7995	1035.180447588245	0.06125416653
0	8071	1045.246033820226	0.006691970509
0	8167	1056.091171560819	0.871027207967
0	8267	1065.004148844898	1.169935615761
0	8269	1065.018444223938	0.313189505998
0	8341	1080.139451222889	0.066664461714
0	8351	1081.524347255746	0.150225970491
0	8467	1093.042451945249	0.322481948234
0	8555	1103.534791007718	0.982434008594
0	8587	1107.443442898173	0.084708386532
0	8625	1112.395604946676	0.485060223222
0	8659	1116.741880174253	0.636044064102
0	8671	1118.474210448623	0.282646062906
0	8673	1118.523139811068	0.080732163598
0	8687	1121.211578705338	1.631393220034
0	8759	1130.190207095878	0.060203663573
0	8809	1136.21657371519	0.630791367052
0	8813	1136.428248133943	0.630336094003
0	8869	1142.344961816647	0.437959396767
0	8887	1145.149566910715	0.974911137463
0	8925	1149.119174732663	0.378169726923
0	8961	1154.110226200718	1.473515550276
0	9051	1168.557658701241	0.421651663931
0	9069	1169.759227602575	0.427051679843
0	9147	1182.055435341017	0.337631637461
0	9187	1186.680362345273	0.038488143853
0	9241	1194.416738362855	0.066949769804
0	9281	1198.6554737996	0.137952133774
0	9347	1207.197826549406	0.102838004903
0	9373	1214.954383546524	0.875388302216
0	9441	1222.099329399843	0.194803662246
0	9445	1222.244925857913	0.043361300305
0	9561	1239.277518894315	0.865588507113
0	9567	1240.516058264412	0.158648573619
0	9591	1243.303224718827	1.023467156825
0	9603	1245.005031603808	0.593966173049
0	9715	1259.604764046189	1.197607635051
0	9723	1260.525463548197	0.257788625177
0	9791	1265.649958964145	0.400832401714
0	9819	1269.699583975041	1.050974149979
0	9851	1276.174477445823	0.161343211081
0	9911	1284.22511805456	2.191219919779
0	9923	1285.489538070407	1.213834295814
0	9929	1286.910224089318	0.06418400433
0	9945	1288.457745961239	0.102575875295
0	9997	1294.192174951342	0.721971763922
0	10027	1298.410491197952	0.058469619282
0	10151	1312.493360886382	0.318809737135
0	10261	1325.12759190107	2.837341136126
0	10283	1327.271843606547	0.578171780349
0	10293	1327.790945874146	0.249531187513
0	10367	1335.870513433073	3.556738445419
0	10427	1342.722841957575	0.116611723119
0	10517	1351.849798728732	0.016533037581
0	10573	1357.742096672916	1.318810159556
0	10615	1361.849686724726	0.268121738119
0	10685	1369.790240647947	0.143407338556
0	10851	1389.921476056563	0.1360570442
0	10861	1391.795908175505	0.545771756189
0	10875	1393.239155997886	0.950233768669
0	10883	1394.007057160524	1.001484191661
0	10917	1397.020904353464	0.575428738595
0	10933	1398.346103837069	1.118455913052
0	10967	1402.225237387	0.985662295019
0	11003	1406.865540599229	0.087498308671
0	11055	1417.745200771122	0.082977997489
0	11065	1418.355161485128	0.100099108629
0	11079	1419.451572030331	0.248672210836
0	11087	1421.263856227381	0.262546391328
0	11119	1425.696603641768	0.395455588683
0	11145	1428.596559740173	0.151704849027
0	11245	1444.884198714478	0.485012573114
0	11287	1449.901283318804	1.619966278722
0	11315	1454.763698758293	0.509975012172
0	11337	1457.56693526449	1.38252180993
0	11411	1465.737846563184	0.177070171703
0	11459	1474.181246652091	0.186675712819
0	11509	1480.907543512365	0.962409467285
0	11569	1488.999887067481	0.924582657625
0	11583	1490.425942310643	0.126754367925
0	11603	1491.475803894466	0.089786033614
0	11657	1497.739297123162	1.972734065404
0	11677	1500.521340146589	0.080834524951
0	11701	1502.205110995803	0.143088805139
0	11807	1514.626030779059	0.908787184369
0	11809	1514.651407600972	0.794471185896
0	11869	1522.517132748614	0.182196404189
0	11889	1524.46188307479	0.87262334693
0	11919	1528.852140426289	1.168610173512
0	12037	1541.732834224094	0.253627788771
0	12043	1542.328353378664	0.057916863081
0	12085	1546.496220681947	0.044425466117
0	12149	1554.793653913239	0.890050272301
0	12165	1557.008020040782	1.132666608055
0	12215	1561.791134412575	0.323122161589
0	12223	1562.560343875203	0.887051587228
0	12327	1580.425183150106	0.521602347939
0	12357	1582.88661626647	2.232685370529
0	12381	1585.954157778195	5.11248111848
0	12423	1590.709094101894	0.914011230421
0	12459	1595.347783566657	0.087197214103
0	12615	1618.060408685661	0.387477129691
0	12643	1619.828407207716	0.222265426146
0	12737	1627.310176831955	0.538076294586
0	12749	1629.101168975953	0.146458956474
0	12783	1634.664245919778	0.167698580779
0	12831	1641.451767878734	0.306334087092
0	12901	1648.990774003661	0.401283612576
0	12925	1652.796260698155	0.558143662617
0	12927	1652.815685184939	0.600626677042
0	12957	1656.59947065857	0.395646290029
0	13017	1662.715407539594	0.100107819242
0	13049	1668.470722199998	0.174882034319
0	13133	1676.960485911243	0.39352063005
0	13189	1684.079782272354	0.379302597153
0	13235	1688.151075560019	1.776721010385
0	13241	1688.610268026933	1.027600065014
0	13275	1691.560391120915	0.143103871762
0	13293	1693.012663349665	1.042265823611
0	13367	1700.378734476868	0.155475306863
0	13395	1703.670795161831	0.341093394901
0	13627	1729.999836253741	0.111867246488
0	13649	1732.577507874511	0.455166586592
0	13687	1735.61952231614	0.098407969762
0	13731	1739.436224517512	0.002959315712
0	13773	1748.370136487217	1.166107959002
0	13779	1748.794429618979	1.033280218636
0	13845	1757.042921515106	0.681650368593
0	13913	1762.736976478964	0.145077026955
0	13991	1771.524959646841	0.154812858786
0	14015	1774.95477977525	0.518746166478
0	14035	1777.300018228771	0.153484785273
0	14135	1786.459246248473	0.925900849248
0	14141	1787.419196727034	1.996212368459
0	14197	1796.754373214669	0.121884856918
0	14219	1798.676539528213	0.400622515241
0	14431	1825.385738050365	0.40301135948
0	14549	1839.482076939768	0.990894977746
0	14609	1846.785215792436	3.000153945867
0	14645	1851.291482412784	0.099827900423
0	14655	1852.306403696194	0.055799075304
0	14673	1854.282463388458	0.461713558691
0	14683	1855.300449456774	0.263818398105
0	14751	1867.492098942891	2.749524496833
0	14753	1867.744676458061	4.775728326871
0	14773	1870.309107803545	0.692782943737
0	14789	1872.087952693209	0.600948602397
0	14859	1878.889516417772	0.277537962889
0	14911	1885.089869835627	1.063016137193
0	14939	1889.2617087095	0.018274698754
0	15009	1895.028167639547	0.312362438193
0	15041	1898.669942455199	0.772956260133
0	15047	1899.709448997423	1.716174568121
0	15053	1900.894936323357	1.312513231452
0	15087	1904.299558515877	0.129708330808
0	15111	1908.180164857975	0.156714580503
0	15133	1911.840781571031	0.133683619467
0	15203	1919.907745992727	0.064477640361
0	15217	1921.386472479892	0.295768309952
0	15267	1927.150739005055	0.080277097389
0	15271	1927.552717155206	0.226058515016
0	15275	1927.912623987648	0.1294659526
0	15427	1944.116945689522	0.110126944867
0	15447	1946.785811910164	0.488441770119
0	15491	1952.647663496378	0.249188513269
0	15541	1960.469406755286	0.442150851714
0	15589	1966.441414583416	0.745287623868
0	15611	1968.570413716979	0.909579478676
0	15665	1975.357541861016	3.290246588723
0	15667	1975.717687057884	0.964976315865
0	15707	1980.69053948328	0.047549991229
0	15735	1984.97748904494	0.017931499071
0	15749	1986.93282761493	1.634212476651
0	15751	1987.020411951707	0.698440754368
0	15811	1993.136691884728	4.381605300138
0	15871	1998.771439046322	0.060394276297
0	15923	2004.244995093936	0.026486211132
0	15935	2005.705108104433	0.216256152087
0	15967	2008.5941845723	1.111847652017
0	16053	2019.675063903788	2.897831387671
0	16067	2020.368700073694	0.027237090916
0	16185	2030.446782566148	0.309323073243
0	16271	2040.940977128219	0.210997537141
0	16329	2046.182890085053	0.393474625445
0	16365	2049.020736011876	0.7484346776
0	16371	2050.029109368197	0.255563076134
0	16403	2053.612911276582	0.185657085639
0	16429	2055.739607520419	0.487707277433
0	16483	2062.290791730356	0.622763601384
0	16577	2076.457234074578	2.022117746538
0	16745	2102.999452913635	2.170262589174
0	16787	2106.344984479265	0.84236404193
0	16895	2120.216639681719	0.44772163481
0	16903	2121.327307815749	0.032016714739
0	16979	2129.049935651418	0.844040317666
0	17003	2131.954024498115	0.65005844151
0	17033	2136.079435400836	0.995724593478
0	17087	2141.240707528451	0.089138500023
0	17115	2144.975553081352	0.481247792649
0	17131	2146.85481454798	0.001124357866
0	17139	2147.567138107011	0.461583650278
0	17163	2151.354318167959	0.180911223099
0	17183	2153.225165666397	0.997521176149
0	17189	2154.369562581475	1.77995118913
0	17195	2155.749379639805	1.45639188509
0	17215	2158.695234130902	2.111526481264
0	17255	2165.897370031631	2.131522346188
0	17323	2174.599246377412	0.28154785618
0	17335	2177.414961240576	0.976174245797
0	17409	2185.244376004416	0.269046412915
0	17433	2188.503829084704	0.090911508324
0	17463	2191.967141782897	0.182252672593
0	17465	2192.727019416013	0.871073659982
0	17501	2196.412346286874	0.782665733391
0	17503	2196.440051902016	0.440766134801
0	17519	2199.345863938784	1.317027923418
0	17549	2202.207068535721	0.183936906783
0	17565	2203.629835043213	0.658288399856
0	17607	2209.744758075935	1.025494724089
0	17623	2211.600295961865	0.506233865276
0	17731	2226.507083566102	0.424639701276
0	17769	2232.106761803737	0.216793712457
0	17795	2236.358738966666	0.095098063158
0	17823	2239.034270949366	0.246782369782
0	17861	2243.582780685279	0.031554279844
0	17893	2249.109193954106	0.15796702456
0	17911	2250.887202625355	0.344849160578
0	17957	2255.833398338872	1.680244343761
0	17959	2255.928545732695	0.38116625328
0	17995	2260.283116873123	1.246549237409
0	18019	2264.234465200265	2.221522607207
0	18085	2273.506338611528	0.005213105959
0	18115	2276.479727532889	1.033962497286
0	18123	2276.927138682935	0.09158076342
0	18159	2281.878193831862	1.701008718089
0	18161	2282.046321736189	1.504989876923
0	18189	2285.33454855703	0.889957307784
0	18199	2286.538106372236	0.351842878211
0	18205	2287.715770463657	0.369488997159
0	18255	2293.768828550215	1.245849154243
0	18311	2300.282172453909	1.591546204775
0	18319	2301.135504165691	1.270461213352
0	18341	2304.066195853649	1.48527810298
0	18513	2325.330438980744	2.111336459441
0	18521	2325.89832608402	4.130407560654
0	18565	2330.600175769	1.162213883572
0	18681	2343.011604392982	1.778266460593
0	18771	2354.223125278941	0.424830425637
0	18871	2366.270358268239	0.168169337516
0	18897	2370.899951505341	2.392514986623
0	18951	2376.437388193105	0.892048992187
0	19027	2389.479323785769	0.047146903551
0	19055	2393.309092169963	1.264808400957
0	19069	2394.898181555497	0.658096159741
0	19075	2395.475804613682	0.129241209575
0	19169	2409.402640058289	1.255643492863
0	19179	2411.554749401098	1.400768665353
0	19185	2412.609702191303	2.1249975864
0	19251	2421.020099017196	0.782314705951
0	19253	2421.124221514861	0.180857416509
0	19261	2422.314992154579	1.340356683035
0	19267	2422.972624895871	0.180955256316
0	19321	2427.589428414499	0.056010079178
0	19333	2428.2202860422	0.359068370554
0	19359	2430.661965191071	0.47611733431
0	19373	2432.05644322163	1.096606415376
0	19491	2449.980524804422	3.669865625476
0	19575	2460.515367563507	0.179759791187
0	19593	2464.14766501709	0.738088138891
0	19669	2474.787954010591	0.831280913469
0	19897	2501.990891090699	0.06076603941
0	19925	2505.065415474423	1.979914045879
0	19979	2511.147143446456	0.022317740742
0	19999	2512.614794796552	0.060995853803
0	20083	2524.645814843854	0.122247629275
0	20099	2525.758965783037	0.111273997526
0	20193	2537.383175640636	1.130498477187
0	20241	2542.123628522637	0.295427868743
0	20269	2546.526270830566	0.265417572221
0	20275	2547.018584048989	0.092356693969
0	20299	2549.773821298275	0.109038559112
0	20341	2553.197859159575	0.174054824046
0	20365	2559.648354042634	3.329042724496
0	20403	2564.867715452968	0.363336644795
0	20407	2565.400676947433	0.660215092126
0	20435	2568.771346353097	0.411665845177
0	20549	2587.457455728725	0.346442753582
0	20617	2594.084575771004	1.194637148726
0	20809	2617.238252151667	0.70809554476
0	20849	2622.063556086029	0.580329621145
0	20871	2623.687804301899	0.270971783554
0	20913	2628.763820520885	1.934540291914
0	20961	2633.94815037301	0.985346270275
0	21011	2637.914762604292	0.484485265028
0	21103	2646.61179471696	1.928324763607
0	21105	2646.623070935786	0.826111634367
0	21117	2647.692667455986	0.574799235647
0	21141	2649.913851308592	0.973013275377
0	21179	2654.839766550915	0.197072330585
0	21193	2656.392346239618	0.264166083813
0	21333	2674.072527571809	0.136378256505
0	21347	2676.397261145183	0.140411098061
0	21381	2679.6445343641	0.245015948072
0	21391	2680.664245670658	0.337985668102
0	21449	2686.759586122671	0.05142656935
0	21473	2688.455349197508	0.084121890011
0	21585	2701.788071796166	1.014768556713
0	21653	2707.101894311547	3.956194800037
0	21655	2707.327856462133	2.518053509415
0	21663	2707.934233151162	0.909965544127
0	21693	2711.009225619845	1.201274591432
0	21699	2711.462346850632	1.850197672584
0	21713	2712.680361199876	1.465303677494
0	21727	2713.744396269092	0.414338652292
0	21803	2722.424909372752	0.471326320281
0	21811	2723.308825297725	0.21633625774
0	21831	2724.411123296518	0.120302042443
0	21883	2731.473522743584	0.412522468434
0	21911	2735.307081405535	0.180259880122
0	21941	2739.318720145201	0.463580732631
0	21959	2740.991934173976	0.464594184862
0	22001	2747.529704807453	0.042424396057
0	22093	2755.590350609472	0.344877158519
0	22115	2758.568236366435	0.150200791448
0	22129	2759.549489558926	0.019822004988
0	22191	2766.694188197554	0.129009681703
0	22241	2771.872699229586	0.193146116565
0	22267	2773.388042848935	0.029338438572
0	22293	2776.583298118249	0.712738789372
0	22295	2777.016338455565	1.366473791157
0	22315	2778.442710608143	0.686083836594
0	22389	2788.171708925765	0.127652251423
0	22407	2789.22601187614	0.754897754835
0	22447	2795.141684059382	0.278937181494
0	22451	2797.116399248346	0.4322330597
0	22457	2797.63795490023	0.204564353246
0	22481	2799.358056435995	0.849784479199
0	22495	2800.168209898642	0.193427769719
0	22525	2803.608897909862	0.074275522515
0	22727	2824.895568844263	0.069223631295
0	22753	2829.227851306688	0.351982899432
0	22767	2831.729316109736	0.887764431765
0	22777	2832.659129134102	0.380145991873
0	22779	2833.137773399094	0.552042341281
0	22823	2837.330474932258	0.635733069872
0	22831	2837.854785971162	0.194314926372
0	22847	2839.793847946376	1.207838916689
0	22859	2840.884244527984	1.999456074607
0	22971	2855.795622336075	0.172037101999
0	23019	2862.045734055979	0.351963870591
0	23039	2865.288656414959	0.122243391825
0	23055	2867.495126903033	1.763652108492
0	23065	2868.656853453534	0.130908867447
0	23115	2877.154276897447	0.384822563058
0	23153	2885.397244389389	0.982551268441
0	23195	2890.130537026586	0.281392486258
0	23207	2890.949876903798	0.252748084986
0	23211	2891.627789266353	0.338316970631
0	23217	2891.77099567255	0.094453478052
0	23229	2892.769571015674	0.222400260997
0	23261	2896.581235903528	1.72522723544
0	23263	2896.700921025956	1.686132198492
0	23307	2903.505679899573	0.52629178718
0	23315	2904.965528005345	1.044089498576
0	23339	2909.692962171482	0.248157080427
0	23361	2913.493434496014	2.914327432165
0	23405	2916.789542898546	0.342525429562
0	23431	2919.335277946942	0.365516593082
0	23535	2928.224576172112	0.631430480492
0	23545	2929.112143509614	1.499726902684
0	23623	2936.874326238758	0.708483368533
0	23691	2944.344907304935	2.486229631396
0	23701	2945.217331184188	3.876293416396
0	23703	2945.396280992614	1.125111807704
0	23705	2945.564992417048	0.697107049456
0	23743	2950.292097686365	0.494791992223
0	23767	2955.303468820225	0.269172796132
0	23795	2959.354835249921	0.310054366759
0	23945	2974.20631363	0.028023843235
0	23979	2976.779535909311	0.609238280458
0	23983	2976.986575634712	0.144701519581
0	24009	2979.426235042477	0.966608538399
0	24015	2979.541584522723	0.635191764294
0	24093	2989.832119845774	0.548210181676
0	24105	2990.709605501116	0.0086114632
0	24123	2993.203798421433	0.462740741379
0	24165	2998.324032644464	1.793018231848
0	24167	2998.491966871581	0.538638486111
0	24219	3006.06079798015	0.094018037269
0	24241	3008.535917650123	1.039270670368
0	24345	3029.072119866045	2.683171407191
0	24365	3031.963696378777	0.422694709574
0	24427	3038.875743810434	0.975193371809
0	24451	3040.78700177557	1.459074477373
0	24473	3044.738873373425	2.999776389271
0	24497	3047.275954484802	1.083229115325
0	24581	3058.679368408669	2.422527756744
0	24629	3064.106268139556	2.537734844673
0	24651	3065.63718320575	0.213711461557
0	24673	3068.69122321768	0.552077052331
0	24739	3077.771784948394	0.662084698023
0	24749	3078.65218444626	0.337219929913
0	24801	3085.172346796021	1.311000148583
0	24823	3087.119594878797	0.087893365444
0	24901	3095.598033062705	1.424815631391
0	24911	3096.438967575911	0.196872957375
0	24919	3098.107506591158	1.091011649186
0	25051	3112.861378986044	0.930411506127
0	25083	3115.537470387206	0.409862308729
0	25085	3115.761687333528	0.362973527229
0	25137	3122.155672535729	0.232000492773
0	25173	3126.797237017185	0.358990092757
0	25245	3134.214624962263	0.196596885266
0	25251	3135.951345051774	0.056244835712
0	25299	3142.700520621976	0.118572907621
0	25319	3145.988447012287	0.603017584971
0	25429	3162.791632858738	2.12817845283
0	25515	3171.316407994077	8.332870161056
0	25517	3171.414820429386	1.901635115556
0	25529	3172.372559939372	9.334625484141
0	25549	3173.867013302015	1.740599459988
0	25593	3179.127636911161	0.036967582445
0	25625	3182.025825494962	0.69970786821
0	25697	3188.596114461743	0.01196204673
0	25831	3203.895178915861	0.789794161565
0	25857	3206.725809692914	0.027724534283
0	25947	3216.370224719354	0.037393098219
0	25951	3216.883235360485	0.276129167087
0	25965	3220.052865172153	0.302751351708
0	25975	3221.459006455827	0.065549338095
0	25979	3222.082969897585	0.075108285136
0	26013	3226.934778500238	1.224294500356
0	26021	3227.697820995921	0.48600639809
0	26063	3230.596514476274	2.142863888751
0	26065	3230.638264725306	1.514170050069
0	26137	3239.902343374675	0.948240391703
0	26145	3240.521180691091	0.322126391418
0	26171	3242.474401058211	0.685116413424
0	26239	3255.34734720333	1.433358848398
0	26303	3263.083288704966	0.230867445023
0	26353	3268.907149992317	0.392761581272
0	26435	3278.09429002133	0.354522169363
0	26565	3292.360291156108	1.43299142246
0	26629	3300.728530329639	0.445136692654
0	26767	3319.71982757041	0.896149122679
0	26807	3325.180808884682	0.065687996894
0	26847	3329.063437537419	0.379016820206
0	26859	3331.020096326058	0.17632656817
0	26941	3340.211759233962	0.002588463119
0	26983	3345.115404280397	0.171504104869
0	27021	3349.369607875584	2.314438573219
0	27029	3350.017056231175	2.487470469211
0	27065	3353.347734196189	0.441226223084
0	27087	3354.944062631463	0.363393405376
0	27111	3356.827472291026	0.618888168711
0	27113	3357.363551971183	1.016686276318
0	27183	3367.66356091751	0.015663702714
0	27195	3370.137740056374	1.195882424823
0	27261	3376.415734814576	1.856723840817
0	27343	3386.284006139792	0.528447583469
0	27377	3390.975632039987	0.557935731032
0	27401	3393.31169099244	1.519070744133
0	27441	3397.172556659756	0.291638347138
0	27477	3401.011890349042	0.292563709425
0	27535	3406.757893635752	0.318468407856
0	27649	3421.202913658767	0.368253277561
0	27707	3427.007288124589	0.353149754293
0	27759	3434.586916177653	0.043217820073
0	27847	3443.927939323852	0.236752343208
0	27973	3458.284850704054	3.099438662688
0	27997	3462.2339398695	1.925962850467
0	28043	3470.075859673763	0.325463042326
0	28065	3473.738042056374	0.114488455513
0	28107	3477.139374112169	0.447628267272
0	28167	3485.558951456287	0.038496375545
0	28181	3487.753893566188	0.570234051401
0	28323	3505.901356721241	0.085391043991
0	28327	3506.435191999379	0.376997274269
0	28363	3511.309089914093	0.859293401958
0	28373	3512.686660479129	0.374871226212
0	28383	3514.009388158891	0.649025686297
0	28577	3540.023858190116	1.342397004376
0	28715	3558.881475964044	0.633650349802
0	28759	3564.343448162011	1.12428344319
0	28763	3564.842296697654	0.666755245843
0	28767	3565.063179517942	0.587019312308
0	28785	3566.974001982362	0.720347392781
0	28787	3567.123822604121	0.241851436878
0	28803	3568.348396789545	0.492284531876
0	28853	3572.047977434969	0.342999766203
0	28881	3574.440939943425	0.294814988943
0	28887	3574.780333452867	0.015479207435
0	28895	3576.285542228399	0.296162049846
0	28927	3578.973644458828	0.4244976419
0	28939	3582.282221277496	0.045786956095
0	28955	3583.654453103092	0.237594203954
0	29043	3598.744715672822	2.965054278192
1	4	0.359424155394	0.359424155394
1	10	1.141778937113	0.74384168483
1	18	2.27191733759	0.390802570557
1	20	2.465968603079	0.978454406037
1	24	2.696176281832	0.539537271464
1	34	3.300447174537	0.2597785393
1	36	3.969331654667	1.117033424398
1	40	4.270401299992	0.987931612281
1	46	5.433160664474	1.03930163434
1	48	5.46263480666	2.78691614596
1	58	6.318268039416	0.714995065375
1	60	6.920581742871	1.373102076092
1	62	6.981074084337	1.388013904496
1	70	9.394883531259	0.645600829957
1	74	9.64245531511	2.234473308103
1	78	10.249069704706	4.416172662037
1	80	10.299419468481	1.870991353518
1	84	10.80951054937	6.742592802847
1	90	11.643980810745	0.568545872037
1	92	11.939111727447	0.941041628989
1	94	11.9838901917	2.064505501272
1	96	12.198116479791	11.172213848484
1	98	12.454794360603	2.90289188077
1	104	13.117947108003	0.595301930301
1	108	13.361580077276	0.735833258559
1	112	13.423003584077	0.00758742768
1	116	13.579711908348	0.286319997319
1	118	13.644566504126	9.001271469484
1	126	14.352564830523	0.383819190947
1	128	15.284130180209	1.189663574596
1	130	15.742185762089	1.403440631822
1	134	15.981284192816	13.099793628
1	140	16.329552582113	0.04182449031
1	142	16.3543986983	0.353936809868
1	146	17.309315644127	0.423533652595
1	152	17.52972090774	0.094482682433
1	154	17.584932383111	0.055981124795
1	160	18.120975078857	0.18084082409
1	162	18.278220101779	7.790865940496
1	168	18.639094758976	0.230929724323
1	172	18.973746158705	0.043054043262
1	174	19.396876724046	5.908821554003
1	176	19.490597331556	3.71289469065
1	178	19.893805029724	1.466048416864
1	180	19.964170447894	2.213517175268
1	184	20.950662522508	0.423497086038
1	188	23.324047824899	0.116832213307
1	192	23.894350170801	0.251176632396
1	196	24.022816680339	0.112110803392
1	200	24.301847360206	0.069250982458
1	204	24.7678105787	0.046782163917
1	208	25.354507908604	0.42722887886
1	212	25.548348088212	0.059484907701
1	216	25.767193340801	0.087552238603
1	220	26.61696435193	0.184005583096
1	230	29.204448262128	0.727927567714
1	232	29.244862172252	0.775173767053
1	236	30.366107364686	0.842128520317
1	238	30.619042003244	2.692488288484
1	240	30.904075440577	1.940003779085
1	244	31.421425344731	0.02293077057
1	248	33.519436971069	0.239978754656
1	252	33.751773516122	0.008076051258
1	262	34.780181155719	0.178167784768
1	268	35.057904496056	0.153080379545
1	274	35.782222028256	0.026518960593
1	276	35.879980207489	1.44417195702
1	278	36.351656018315	1.685614264708
1	280	36.684793424741	2.268973323801
1	284	37.131024895245	0.123365936039
1	286	37.415524070132	1.927263190347
1	288	37.711827650311	2.870197852013
1	292	38.048739343827	0.039460123367
1	296	39.595228655378	0.34315825643
1	312	41.89189380096	0.416712261672
1	322	42.628406789555	1.703648205312
1	326	42.981658406339	2.253380304477
1	328	42.989783389857	2.069725180946
1	330	43.061884290651	2.539661637724
1	334	43.259456343526	0.001882616197
1	336	43.322792946018	0.46761791859
1	340	43.614327839693	0.125888664342
1	344	44.046119386719	0.136138695294
1	352	45.203059713929	0.201737522635
1	356	45.561696062243	0.703384357203
1	358	45.901384386869	3.554743502234
1	360	46.308847878877	0.878329203669
1	362	46.409815876033	5.844207981936
1	366	47.298418635423	5.752571739355
1	368	47.754261820836	5.578448019714
1	370	47.991311431817	5.490911685301
1	374	48.229863189549	5.628288223749
1	378	49.074666890454	0.049410658945
1	380	49.215874943764	2.653489480626
1	384	49.838664513779	0.212288998647
1	386	50.040672012881	1.952145721301
1	390	50.581800807833	0.114964190428
1	392	50.930015138364	6.355655510064
1	398	52.385518495432	0.853932179993
1	400	52.85727166889	1.137815932248
1	406	54.123891452746	0.27831978436
1	410	54.489312007124	0.10482289667
1	412	54.902430811382	1.500789848214
1	416	56.167781685337	0.220558396054
1	420	56.571339840576	0.372961152163
1	424	56.688357383699	0.007751912539
1	428	57.146228711669	0.143570886348
1	432	57.751949762598	0.431728079462
1	436	58.086783291647	0.137039849879
1	442	58.504525830367	0.384950022308
1	444	58.728510258397	0.367116607043
1	448	59.111112846001	0.058229591379
1	458	60.49843599538	0.337555389036
1	460	60.819456789683	0.712849732586
1	466	61.16108868394	0.733232693421
1	470	61.576178968402	0.15485203686
1	472	61.80202316885	0.927302639178
1	474	61.902055766841	1.692713783209
1	480	62.06632679444	0.040928245941
1	484	62.295311415011	0.346059679139
1	486	63.185277277901	2.29345503905
1	488	63.30590364319	1.051418652712
1	492	64.631420614552	0.308030743819
1	496	65.381468059026	0.23762939933
1	500	65.794301141605	0.04195273424
1	504	65.978892991557	0.173738262378
1	508	67.31818084131	0.253385047089
1	512	68.426992670708	0.735893114031
1	518	71.170043025156	0.015313165154
1	520	71.240973255214	0.167178438568
1	526	72.575516716012	0.052873483846
1	530	73.179446098256	1.011761829702
1	534	73.767878127655	0.212001151255
1	536	74.104630512348	1.490717979241
1	544	74.483302185885	0.028670153725
1	546	74.961477612398	0.582241085335
1	548	75.148386638962	0.676861214026
1	552	76.714391695596	0.217942851258
1	556	76.819363401135	0.020765020873
1	560	77.620730220085	0.181964737917
1	564	78.451858956668	0.006707106397
1	568	80.405063869889	0.104931723666
1	576	81.847538397764	0.579117632795
1	578	82.371257743373	0.873818952185
1	580	82.925774284181	1.651461903253
1	586	83.302876361582	0.268984206733
1	588	83.325224382737	0.385479715498
1	592	83.491213388082	0.08925568324
1	596	83.616425354346	0.007478188168
1	602	83.903023677566	0.101402282057
1	608	84.733436101743	1.025574181835
1	614	86.254539483716	0.487518721337
1	616	86.267482205574	1.942733587398
1	622	86.966852042718	0.277279907815
1	624	86.987525205036	0.207974399357
1	628	87.373959112863	0.108667228137
1	632	87.990164459985	0.124387121988
1	634	88.370896343002	2.135306221761
1	636	88.825534941105	4.712614873607
1	642	90.025320252949	0.798868786996
1	650	91.033765288735	0.32319202136
1	652	91.129266437874	1.07358585618
1	656	91.233861896063	0.082412819393
1	660	91.614439893392	0.337191510166
1	662	92.152578866686	1.255062351359
1	664	92.393250461296	2.783259168057
1	680	93.515363625137	0.456455161144
1	684	93.783009114613	1.061222935438
1	694	94.890461039744	0.384575828628
1	696	94.900456381069	0.99050022178
1	702	95.671800435821	2.337131763896
1	706	96.190672269411	0.241832487334
1	710	96.648079281078	0.373624133042
1	716	97.556015287392	4.368100441429
1	718	97.80958729515	4.430341478227
1	720	97.907383703967	4.498247405586
1	722	98.150916869462	3.308839645513
1	724	98.586078642908	4.862957380816
1	726	99.533645911243	4.265771991319
1	730	99.61428983426	0.008346887444
1	734	99.718430398879	4.975337042597
1	742	100.997916568274	0.415140030196
1	744	101.154945779549	0.765013088494
1	752	101.664948413224	0.396601717159
1	754	101.814453730751	2.134712767489
1	756	101.9422835927	5.283268544116
1	758	102.163951924319	8.72577944488
1	762	102.747607936531	0.082139107494
1	764	103.2032309968	1.568172788203
1	770	104.213595982844	0.46524531337
1	772	104.310683380313	3.48608764849
1	776	104.932548555437	7.646431871808
1	778	105.036804607188	0.98393163136
1	780	105.561807804374	1.178683288671
1	794	107.264678600224	1.262838216566
1	796	107.357688607578	1.502323953163
1	798	107.424438464071	0.605429312682
1	802	107.628155130754	0.187470590391
1	804	108.043837385387	1.237827106595
1	810	108.226257131634	0.130086407191
1	814	108.579771394047	0.362640847218
1	818	109.19436066618	0.050013035969
1	820	109.643744865999	1.323435322368
1	824	109.88834442103	0.056656813918
1	826	109.965248997367	3.843446853991
1	830	110.195499137156	0.201711973301
1	832	110.444313904788	15.211248820401
1	836	110.684270341925	0.080983505479
1	838	110.775968072008	9.140937539359
1	840	110.838558380162	4.351642404166
1	848	111.78873477426	0.267816236344
1	852	111.909824211211	0.012370516624
1	854	112.489646121782	0.878590434077
1	856	113.03938332755	1.361657328209
1	860	113.346638740142	0.038867071347
1	864	114.096332453685	0.098079237057
1	872	115.632424467378	0.018675097458
1	878	116.305446719845	0.135261885938
1	882	116.41565789466	0.362800985381
1	884	116.457932764302	1.245879275716
1	886	116.483977910217	1.31547871326
1	888	116.490604347986	0.147659722225
1	898	118.487952251556	0.615131485791
1	912	120.150340689781	3.241936824426
1	914	120.416263789602	0.30044066896
1	918	121.094551032358	0.619604671662
1	920	121.931173661407	2.390057916134
1	922	122.304218403515	4.985602514857
1	932	123.675526643114	1.303568390874
1	940	125.219895244733	0.266336994655
1	942	125.61808070208	1.632041950815
1	946	126.032061446751	0.275773815139
1	948	126.170762768267	3.240168404193
1	952	126.91533542546	8.147519857454
1	954	127.001773912098	9.687799535629
1	956	127.386578682734	7.404022664982
1	962	127.915496159439	0.170614324815
1	964	128.70859572128	5.909789913624
1	966	128.772729359075	6.277563195729
1	968	129.379156931005	5.054217178712
1	972	129.83502943695	0.260318936944
1	974	130.395299715734	3.602131352572
1	976	130.670477107118	11.737206598524
1	978	130.672099635646	10.589322520351
1	980	131.080174470828	3.341955258618
1	986	131.891529177087	0.058890014925
1	990	132.238311406418	0.141438630105
1	992	132.3225247217	0.64688450857
1	1000	133.318151338839	0.10160455134
1	1002	133.359338684327	0.399149218143
1	1004	133.567770212761	0.286933306624
1	1008	135.591508061052	0.336854521135
1	1012	136.413996029691	0.16839731922
1	1016	138.672186957105	0.622117744142
1	1020	139.882035328122	0.211984631709
1	1024	141.033304222483	0.178059735763
1	1030	141.80295569743	0.20399633354
1	1038	142.294309814395	0.056850204557
1	1040	142.451710778844	0.607870227902
1	1042	142.473673727864	0.672122922803
1	1046	143.546364147495	0.005618636497
1	1048	143.550961447578	1.445637069808
1	1054	144.632104554365	0.063573271862
1	1062	144.865557476093	0.115405084139
1	1064	145.311512444856	0.472991642802
1	1072	146.102919833596	0.557947636505
1	1076	146.415901652962	0.190591433039
1	1078	146.935279907204	1.117478852729
1	1080	146.975893540781	1.571683354925
1	1082	147.101957552267	2.310374023854
1	1092	147.539692826544	0.258869881617
1	1094	147.661281450236	0.450942447517
1	1098	148.120871583051	0.29743327671
1	1108	149.185619322578	0.765936903057
1	1110	149.376786517582	0.195654303206
1	1116	149.60128012284	0.036134897633
1	1118	149.624691282419	0.159473826172
1	1120	150.056262045819	1.041831500631
1	1126	150.945304068874	0.603286092651
1	1130	151.51741771142	0.120130032114
1	1132	151.596002465779	1.138274003578
1	1134	151.783245047073	7.595925606677
1	1136	151.812212691119	3.684242157116
1	1142	152.096566528751	0.127433539152
1	1144	152.281922539767	4.793135669419
1	1146	152.33922374832	5.02991753716
1	1148	152.427011012678	0.453010318409
1	1152	153.333410402504	0.246367713514
1	1156	153.8605287094	0.018255219798
1	1162	155.781864933628	0.643367139634
1	1164	155.813896476006	0.047451939842
1	1168	156.396538158644	0.292618135653
1	1172	156.56746660297	0.146580516733
1	1188	159.109475406585	1.281923531845
1	1190	159.334605487312	0.284625206567
1	1192	159.659764831786	0.627785965916
1	1200	160.122705826964	0.307301336747
1	1202	160.542021468946	0.639519398542
1	1206	160.607223845487	0.055181292772
1	1208	160.764846874266	2.669592823979
1	1212	160.964323807414	2.773421734178
1	1218	161.161503837728	0.055434728569
1	1228	162.098799809765	2.118654946609
1	1232	162.422836221228	0.034646797779
1	1234	162.668277905124	3.958753284837
1	1236	163.312810704772	2.103149004487
1	1240	163.827995494802	2.888531752335
1	1242	164.031676489549	3.012706738682
1	1244	164.070924298601	1.987976297651
1	1250	164.973723883398	0.468505477979
1	1254	165.45480939693	3.420260132134
1	1258	166.103032957455	0.565513331816
1	1260	166.114009797627	8.621573861175
1	1264	166.277125619752	0.109785408801
1	1268	166.828527034552	0.003925774559
1	1278	167.586537365682	0.357600561072
1	1280	168.366528130421	0.787578507753
1	1282	168.692935556007	1.5965453021
1	1284	168.937358580521	2.025259796419
1	1286	168.978379337722	5.521479069064
1	1290	169.458461275107	0.342974041046
1	1294	169.670108130541	0.068615450949
1	1298	171.137121317389	0.676093981903
1	1300	171.172654270451	9.530523515451
1	1302	171.242116895734	6.459069033736
1	1304	171.281805506328	6.178270871698
1	1308	173.30439730021	0.401620469551
1	1324	175.1632576149	0.756291661773
1	1326	175.176806356997	0.919504595079
1	1328	175.323488418515	1.67096210795
1	1338	176.510837321352	0.198883714537
1	1340	176.517422634946	2.832513477986
1	1354	177.951095946559	1.059675304892
1	1360	178.458460665351	0.038616511611
1	1362	178.700634178007	0.854842809184
1	1364	178.723671344734	2.191140332554
1	1366	178.881897584892	1.606245654529
1	1368	178.918100572951	3.182856649169
1	1370	179.024074548006	0.656065812587
1	1372	179.132364304301	4.074979637444
1	1376	179.451444815744	0.013453568368
1	1378	179.74701282372	3.728443620245
1	1380	179.75330447323	3.954273762549
1	1382	180.041162432305	3.406205286552
1	1384	180.265165781637	6.866749198098
1	1390	180.401214893508	0.013201594023
1	1392	180.501195220168	0.148432894863
1	1400	180.754204599414	0.004843698025
1	1404	181.024346947483	0.345223904572
1	1412	182.623372338171	2.090222331124
1	1414	182.81094086908	1.282442072002
1	1422	183.708980137702	0.210412318304
1	1428	184.421354007659	0.899418737393
1	1430	184.690931385346	0.894476875751
1	1432	185.09961872431	4.052916275377
1	1436	185.155168675287	0.027013662751
1	1438	185.305193452535	4.31984850726
1	1442	185.493763864125	0.136094887845
1	1444	185.522984526987	1.217421227988
1	1446	185.633506604158	1.925990473491
1	1448	186.09377164133	12.133010678075
1	1452	186.279978194273	0.112978684783
1	1456	186.681951517897	5.01316475773
1	1464	187.724197565504	0.769495428267
1	1468	188.074387376073	0.135338447479
1	1472	188.754322708018	0.536110384792
1	1476	189.010134390382	0.178855961039
1	1480	189.308102657707	0.180495519396
1	1488	190.392474986218	0.105912909335
1	1490	190.630943742777	3.036151758205
1	1492	190.802346784449	4.395740927717
1	1496	191.076521358637	0.118949411163
1	1504	193.190323374214	1.389142282361
1	1512	194.099806240889	1.46094106513
1	1514	194.210395327506	0.39486276771
1	1516	194.325158965659	0.269223461556
1	1518	194.428803868012	2.387183664007
1	1520	194.47358168447	4.463930850065
1	1522	194.742534845285	4.47952240393
1	1524	195.948522154159	18.050264411672
1	1530	196.648129386489	0.177333758401
1	1532	196.842737042392	0.239033139793
1	1534	196.866788390044	2.875372137533
1	1538	197.237254326111	0.048332558505
1	1542	197.972125126224	0.127221818076
1	1544	198.029126304484	10.710235380731
1	1548	198.531071046887	0.187518276656
1	1552	198.738675196566	0.156864515849
1	1556	199.272167921197	0.455918162666
1	1566	200.141922190332	0.634942891877
1	1568	200.282450702949	0.194888391864
1	1572	201.11684777665	0.731010507127
1	1574	201.2903137188	1.647556524504
1	1576	201.398901705372	1.66186214895
1	1580	201.750625229733	0.279175019533
1	1592	203.467502694306	0.807833801288
1	1594	203.639067428615	0.581787434943
1	1596	204.194810831394	1.647663185307
1	1598	204.204782069685	2.062880997189
1	1600	204.685805007569	1.261912344558
1	1608	205.475903914184	0.492287540412
1	1610	205.716365772738	0.884017244745
1	1612	206.210237723159	1.297317905753
1	1620	207.95462178179	0.378440696502
1	1622	208.020738986718	0.407804712721
1	1624	208.258071214022	0.471920276278
1	1636	209.054609420236	0.370655440119
1	1642	210.344735853723	1.370413973829
1	1658	211.948052470073	1.556364036163
1	1660	212.045150645017	1.700802762165
1	1662	212.253995166781	3.038385679307
1	1664	212.600911974313	1.813418993101
1	1668	212.888877167107	0.126790951954
1	1670	213.016413586472	1.987885433541
1	1672	213.259527492119	4.916147438517
1	1676	214.632121588373	0.01033121777
1	1678	214.746349156574	3.798186023927
1	1684	215.379754139854	0.148646301931
1	1686	215.509920826719	6.588297011781
1	1688	215.696666564144	5.31472277671
1	1698	216.775312241778	0.555470909547
1	1702	216.935230350769	0.701948708783
1	1706	218.301200311742	1.576654498395
1	1708	218.375046660905	1.447637675625
1	1710	218.395012901876	0.178047351203
1	1722	220.234778869584	0.880131728178
1	1726	220.520632544535	0.45612693702
1	1728	220.716275908783	1.507904067973
1	1732	221.172693242484	1.467370552575
1	1736	221.562244679076	0.609794145321
1	1738	222.058123911323	2.408059159715
1	1744	222.951579851762	2.672853729852
1	1746	223.118816515339	0.341201264193
1	1750	223.775451570547	0.317949134426
1	1758	224.335205331675	0.313822678767
1	1764	224.830156942598	0.403205416194
1	1766	224.972623255223	0.711802040608
1	1768	224.975789393825	0.795210232889
1	1772	225.222426629234	0.780124216324
1	1774	225.232359912333	10.353726735098
1	1780	225.740767679286	0.037502155044
1	1784	226.020200081718	0.7252309019
1	1786	226.086918384967	17.473336982564
1	1788	226.096763842595	14.619709182611
1	1794	226.400857810058	0.003419207458
1	1796	226.531741962589	0.344043021724
1	1806	227.25258510448	0.136869876646
1	1810	227.727916768595	0.843741894172
1	1822	229.241588006519	0.416737785928
1	1826	229.608496725284	0.654854071522
1	1828	229.963908210214	2.030577234656
1	1830	230.681777455813	1.858280672511
1	1834	231.998036987917	4.996159180242
1	1836	232.004843237409	2.747844379025
1	1840	232.4450306496	6.51772114117
1	1842	232.677434111784	7.615613445185
1	1846	233.158912334767	0.285182591651
1	1850	233.463279831955	0.011812724466
1	1854	233.695594253267	0.040920712404
1	1856	234.008348022509	12.678291579874
1	1858	234.241732091431	5.664455996318
1	1866	235.755163965836	0.473611094539
1	1868	235.793277758985	0.270198375556
1	1870	236.040498709841	4.994248988538
1	1872	236.143882409328	24.517151247873
1	1880	237.481913552107	0.873085555714
1	1884	238.330375334845	1.985619333813
1	1886	238.489554692705	15.597280855741
1	1888	238.546854174219	11.4834950831
1	1892	238.983907358519	0.314673246184
1	1894	239.805528352064	7.527956496058
1	1896	240.194347939456	5.27973005167
1	1898	240.473789366235	24.626137164703
1	1902	240.952430970643	0.312467515995
1	1904	241.264244982175	3.07726075072
1	1906	241.315796440592	13.769723859001
1	1910	242.342969492073	5.245995484196
1	1918	243.868934126484	1.380404051744
1	1920	243.918297915087	1.260547273938
1	1922	243.932977543199	1.253263284987
1	1928	244.093427368314	0.152204379425
1	1930	244.206656342653	0.16938556569
1	1934	244.426396662215	0.142686501069
1	1942	245.583164147694	0.364458323228
1	1944	245.819685261922	1.122312138974
1	1946	245.928431597352	1.143603344356
1	1950	246.375673396625	0.069851118592
1	1952	246.438742217757	4.521019904777
1	1956	246.904196970151	0.163567011699
1	1964	247.751157417331	0.179331722645
1	1970	248.366015396099	0.016168631061
1	1972	248.593789841647	0.982179069414
1	1974	248.618516301106	1.336835400412
1	1976	248.910118989658	0.702382096384
1	1982	249.516762819252	0.081514152883
1	1984	250.055413734667	0.651676790427
1	1992	251.540140416733	0.913357613768
1	1996	251.870247603454	0.296100876566
1	2006	252.509159104282	0.363828281949
1	2012	252.928036006479	0.977504453572
1	2016	254.483493895587	1.557649942705
1	2018	254.560277056367	1.631831537081
1	2030	255.340384260708	0.456209789985
1	2032	255.714216427248	3.570437783319
1	2034	255.862208099148	3.173968865659
1	2036	256.121972389866	1.064333477566
1	2038	256.328453771841	5.312566331732
1	2040	256.462083805065	1.292645363598
1	2046	256.927138370154	0.289040895014
1	2048	257.153819154094	1.951733914804
1	2050	257.337319675153	0.83539781319
1	2056	258.103385425541	0.358674334634
1	2060	258.614803412847	0.359360946575
1	2062	258.672092721439	0.622500544103
1	2064	258.847188503884	6.477000997578
1	2066	258.887914760675	7.975878963672
1	2068	259.315947756526	4.630512825765
1	2076	260.917108727274	0.689756754187
1	2078	261.123287747277	1.10626961039
1	2088	263.557252754538	0.237786406679
1	2092	264.62126388927	0.445946741628
1	2098	265.292037782467	4.079437635608
1	2100	265.624142041174	2.087825958115
1	2102	266.506302362695	1.823505735868
1	2106	266.755652234587	0.048183307108
1	2108	267.234912789725	2.397018101266
1	2110	267.362020526278	6.687615609128
1	2116	267.49930655267	0.025873442058
1	2118	267.508077504946	0.077454791389
1	2120	267.618854395077	6.387109849332
1	2130	268.871048567161	0.079092707176
1	2140	269.974773325359	0.157286914796
1	2142	270.331114846115	0.394645223226
1	2148	271.433600077106	1.553717120413
1	2150	272.187545922788	1.813256900854
1	2152	272.209120705355	1.150804672733
1	2158	273.307621453445	4.884733964734
1	2160	274.197134579745	4.663592015742
1	2162	274.401332644826	1.929754626922
1	2166	275.070043066335	0.095066348443
1	2168	275.134020751676	2.209011180119
1	2172	275.298090797717	0.08382579429
1	2174	275.725823221064	7.527729175714
1	2178	275.795340825145	0.003588554934
1	2180	275.836268216974	7.564358230008
1	2186	277.17754525067	0.348031964147
1	2190	277.352850694603	0.040619508232
1	2192	277.426913115997	0.644683197724
1	2196	278.235724344245	0.785249315823
1	2200	279.572236547994	0.024127209511
1	2206	280.937014070245	0.25442018845
1	2208	280.986258252212	0.145545817496
1	2212	281.40547181626	0.244301669946
1	2218	283.051953084038	1.564056307861
1	2220	283.272408263364	1.429476314359
1	2228	283.655072418893	0.049915008944
1	2230	283.781643375368	0.22914317502
1	2234	284.026830282841	0.401443895062
1	2236	284.13411952015	0.178193231956
1	2240	284.238779471799	0.02426972007
1	2244	284.522650679628	0.052884639931
1	2250	285.44165139864	0.204108559103
1	2252	285.849409473867	0.823211528364
1	2256	286.066788573954	0.203771404088
1	2262	286.329247730709	0.226084653939
1	2266	286.378122842085	0.029046423242
1	2268	286.770836804325	0.656564401546
1	2274	287.872172849591	0.981322336601
1	2278	288.441476487032	0.156673815953
1	2280	288.749421261358	0.994441061884
1	2284	288.979569595059	0.046828015731
1	2288	289.330502584949	0.207701489952
1	2292	290.226557040892	0.207928777952
1	2296	290.921122808901	0.154878986896
1	2300	290.943460366538	0.012163197506
1	2306	292.091679014436	0.534627366929
1	2308	292.138195681143	0.168858172047
1	2312	292.597341780501	0.372874696226
1	2318	293.088796526315	0.485902283427
1	2324	294.090630304272	0.880326749746
1	2326	294.134243049721	1.486805828088
1	2328	294.592674263747	1.397412106989
1	2332	295.696851141938	0.887718208709
1	2336	295.818948133944	0.000483320751
1	2348	297.158082586385	0.084568469991
1	2350	297.333624257202	0.858615804189
1	2352	297.341347499279	1.125300768801
1	2354	298.095793542015	2.262516352674
1	2356	298.387842350117	1.541472022254
1	2362	300.415475562781	0.186861290584
1	2364	300.816885317941	1.324577477016
1	2374	301.17877671	0.100101312161
1	2376	301.182267868523	0.190158031835
1	2378	301.224418324775	0.358378326303
1	2380	301.234522773495	0.20043291679
1	2384	301.301501901229	0.062327674444
1	2392	301.528112976145	0.100749913878
1	2394	301.712603287188	0.251312285897
1	2396	301.783355569637	0.390211945062
1	2402	303.053489451284	0.593925629619
1	2406	303.918451428374	1.487229547288
1	2412	304.136512898155	0.161501162846
1	2420	304.903614604935	0.171968881095
1	2424	304.932819622472	0.479559304352
1	2426	305.151984597553	0.240791032301
1	2436	306.177255929349	0.172440730886
1	2438	306.217458138842	0.197952966738
1	2440	306.416864671607	0.745233152538
1	2444	307.590263827115	0.440558431323
1	2446	308.059750918265	2.142346719819
1	2448	308.14538379613	3.975807537843
1	2452	308.772753864986	0.569652406254
1	2454	309.119450293253	5.061193460984
1	2456	309.300815660586	5.630583515699
1	2460	309.732290762397	0.278110312395
1	2464	309.947381626487	0.188891499458
1	2470	310.540055790286	0.12093125522
1	2472	310.596636632282	0.32404384611
1	2476	310.90909438535	0.089515508854
1	2480	311.450802414542	0.288663499077
1	2484	311.775613844159	0.041031703959
1	2494	312.660812549925	0.763822007402
1	2500	312.766960533035	0.43597173444
1	2504	313.135561415096	0.001547129275
1	2506	313.511168856505	0.84138238963
1	2508	313.589857131957	1.007155275635
1	2512	313.895453771841	0.074579853676
1	2514	313.929402336257	1.235647269591
1	2520	315.800839408965	1.505472317412
1	2524	316.158493457866	0.159224401995
1	2526	316.441907888042	4.173349518366
1	2528	317.09110389487	1.727639840159
1	2536	318.419778817777	0.724044404585
1	2542	318.934319284014	0.124356825242
1	2544	319.446637813241	0.905267223012
1	2550	320.286165184671	2.013105635928
1	2556	320.477953171746	0.03943980008
1	2562	320.923972082926	0.342466462962
1	2564	321.336740364093	3.462380053267
1	2566	321.582107590543	1.376137090751
1	2574	322.385077479401	0.339306723936
1	2576	322.981177114073	1.229428264447
1	2580	324.141540730547	1.890956395041
1	2588	326.06741993044	2.753870309962
1	2594	326.585636130004	0.46267971588
1	2598	327.036057249083	2.075292889376
1	2602	327.136725164343	0.097571867945
1	2608	327.729908910094	0.822133318666
1	2612	328.754226476001	2.664918545479
1	2616	329.0837755934	0.241391516972
1	2618	329.17005552991	1.743866212171
1	2624	329.593888513391	0.306690152851
1	2638	331.803474208709	1.475388790194
1	2644	332.485046850476	1.803737495784
1	2650	332.759706113773	0.145076454482
1	2652	332.873206154789	1.046546357904
1	2654	332.904546075226	0.374944960331
1	2656	332.919444512147	1.133915997998
1	2658	333.140564245549	2.737606222905
1	2660	333.349535942888	5.146195013404
1	2664	333.712398200015	0.335933400554
1	2666	333.938647368424	9.214279781072
1	2668	334.05188810002	4.01176416794
1	2670	334.185566266004	13.412526612498
1	2674	334.477321811038	0.050010219537
1	2676	335.06915186757	4.208916176714
1	2686	336.874937180706	1.078613941568
1	2688	336.985860192278	0.467502763018
1	2690	337.43400382538	1.165609960209
1	2692	337.549289092543	1.279554898204
1	2694	337.650970957627	17.211765429658
1	2700	337.87438580569	0.002998537779
1	2704	338.101698695716	0.20990417763
1	2706	338.574260855153	11.057281928584
1	2708	338.763805486751	9.59167001029
1	2712	339.565807789923	0.362600510888
1	2718	340.590679675555	0.173506475803
1	2722	341.145810339153	0.424621326519
1	2724	341.733623665501	1.701719126132
1	2730	342.301674005118	0.44133012108
1	2732	342.545847422334	0.464367943792
1	2750	343.39732862804	0.829860952959
1	2752	343.60368131705	0.991761529521
1	2756	343.786991142272	0.940254536525
1	2758	344.305173807842	1.144716139254
1	2762	344.604559501811	1.343023365097
1	2764	344.872078975479	2.127411666626
1	2766	344.934596032479	1.200550900459
1	2768	344.934814480463	0.517066488942
1	2772	345.011084176565	0.026642054896
1	2774	345.037349450636	2.071208565164
1	2776	345.160140403653	2.355840659812
1	2778	345.253545886068	12.777967804609
1	2782	345.424849097593	7.565994123459
1	2784	345.461804105095	25.272560984866
1	2786	345.558835688645	21.093482629852
1	2788	345.927587391957	0.666103197864
1	2792	347.109744274184	0.5012312376
1	2796	347.654088150049	0.068420727616
1	2802	348.565176385233	0.167503740902
1	2808	349.531752920712	0.52061684338
1	2812	349.878960214371	0.323516050512
1	2820	350.323854989208	0.261097448217
1	2822	350.357234196233	0.251915146333
1	2824	350.37747747996	0.301672956488
1	2826	350.668686633158	2.184345228213
1	2828	350.80731343681	1.857635253553
1	2832	351.839246633087	0.502180268599
1	2838	352.132891117473	0.075956702985
1	2844	352.80374853212	0.441778721994
1	2846	353.119539170055	0.700866998833
1	2852	354.124525145047	0.855791009193
1	2854	354.653161187519	2.612629550393
1	2858	355.066228822668	0.21914747759
1	2862	355.400635114449	0.289969374523
1	2864	355.577408389998	1.864322240338
1	2870	357.16105802823	1.443462006772
1	2876	357.94885673647	0.460964407751
1	2882	358.576014267558	0.495778863512
1	2884	358.653936706166	0.556368950839
1	2888	359.465325804467	0.285444461302
1	2892	359.525801975045	2.040492789378
1	2900	360.685135386942	1.106592067222
1	2902	361.083779098604	0.882719370975
1	2904	361.216759867238	1.152482570734
1	2908	361.529954959772	0.044933872261
1	2928	364.023841412737	0.572087739303
1	2930	364.201800800331	1.37010706519
1	2932	364.283881927662	1.746925758374
1	2934	364.777513938358	3.085014559485
1	2938	365.094379459371	0.157970116837
1	2946	365.757816814133	3.074596608383
1	2952	366.394449659364	4.377915100649
1	2958	367.404095341869	0.985904054569
1	2960	367.930421034583	2.551403269723
1	2962	367.949263369578	2.265826843463
1	2964	368.469379026391	5.525481689485
1	2968	368.553545787685	2.984232573169
1	2972	368.867397917173	0.18863828818
1	2978	369.471559844648	0.963984422086
1	2980	369.933065349995	0.684673188095
1	2986	370.631597916347	0.589391110661
1	2988	371.164159656525	0.568776318359
1	2990	372.007626649279	2.897836206638
1	2992	372.068657108535	5.473366514192
1	2996	372.434240951273	0.180323924252
1	2998	372.667113372528	15.850134706237
1	3000	372.685629174895	8.895344645283
1	3002	372.952161525305	13.441922635431
1	3004	373.109554484092	10.652566116739
1	3008	373.594260648543	0.335589313172
1	3012	373.637734898262	0.035565744938
1	3014	373.913540067031	7.934016138927
1	3020	375.166735244427	1.07923321718
1	3024	375.738772977341	0.149287891342
1	3028	376.512151167567	0.666061890951
1	3034	377.192432010748	0.248959209739
1	3048	378.738418348613	1.003088934104
1	3050	378.901289220828	1.594421357062
1	3052	379.331952680369	0.812317209954
1	3054	379.409081875889	1.565357448507
1	3056	379.925466958124	2.767991581885
1	3062	380.078637732093	0.023423539329
1	3064	380.353787640686	0.388428977544
1	3068	380.785391781489	0.040569913356
1	3072	381.313457746154	0.522916554
1	3074	381.64780877317	3.064188330322
1	3078	381.993108190876	6.89769743146
1	3090	383.810436047563	1.794919364493
1	3092	384.238818066113	0.8789738979
1	3094	384.567005093281	1.018304072299
1	3096	384.858370683445	2.63331859859
1	3100	385.019460783963	0.021010436143
1	3106	385.653764665734	0.323553475447
1	3110	386.37891806612	0.51722877515
1	3112	386.490820787077	3.557671961974
1	3114	386.506548887049	4.720399874647
1	3118	387.060129280008	0.540738742759
1	3120	387.157912037047	9.881653889343
1	3124	387.674637965497	0.413602329096
1	3126	387.692187036678	21.428896816658
1	3128	387.858245594473	2.473083016592
1	3136	388.948348151105	0.520018403671
1	3140	389.206540059515	0.523141781039
1	3144	389.892509301155	0.76986327743
1	3148	390.039546545736	0.065447765404
1	3156	391.898437573984	0.28771870891
1	3158	391.958945352001	2.129664420633
1	3164	392.755447948536	4.124581586511
1	3166	392.783982751102	1.263145930114
1	3170	393.319312027634	0.525314542139
1	3174	393.554505069025	0.148912713255
1	3176	393.834773485888	2.514374771723
1	3178	394.34200225543	1.890601192732
1	3180	394.541317782315	1.960944104973
1	3184	395.5020965136	0.198987990969
1	3188	396.140764439082	0.632936260116
1	3192	396.64813771229	0.489753214393
1	3198	397.156252040588	0.153628628679
1	3200	398.625275874684	1.499917721705
1	3210	399.835411877988	0.888698880999
1	3214	400.002691281329	0.092922145659
1	3218	400.264308706336	1.229013503889
1	3220	400.559713721142	1.352580826199
1	3224	401.120504499941	1.309836024547
1	3226	401.491119264156	0.822644269751
1	3232	402.021655572915	0.050244139738
1	3236	402.142995173327	0.047286478014
1	3238	402.413583125275	2.291867819443
1	3240	402.659295236722	1.030093274326
1	3244	403.019281151565	0.155640023362
1	3250	404.16208053301	0.263563418735
1	3252	404.432361459314	0.606252412281
1	3256	405.606039772302	0.030040468346
1	3262	406.361811706891	0.131464823068
1	3264	407.293302061763	1.027109068913
1	3268	407.485489162018	0.162597027026
1	3274	408.318531259145	0.234882148519
1	3276	408.600872057189	0.614318435953
1	3286	410.743648251979	0.251783160533
1	3288	410.775077942762	0.173350978565
1	3290	410.912213833106	1.428803338248
1	3296	411.523494703726	0.357679996086
1	3298	411.812931410964	2.10084196038
1	3304	412.010744054829	0.05863831702
1	3306	412.525600897153	0.57836041231
1	3310	413.127637364804	0.357476756697
1	3316	413.960872769761	0.179099309903
1	3322	414.713286390739	0.096235611102
1	3326	414.926924785926	0.806158565212
1	3328	415.141404461981	4.156917260862
1	3330	415.146302797518	1.966589917718
1	3332	415.159335058952	0.256972900314
1	3336	415.665045108668	0.025173792745
1	3344	416.440856247099	0.475667229803
1	3346	416.545616083332	0.71082864415
1	3348	416.58672889614	0.268055796817
1	3356	417.275573041512	0.289378400026
1	3358	417.536918428397	0.487870342528
1	3360	417.640761860268	0.570932715
1	3366	418.915689473662	0.452216012051
1	3368	419.275148655541	0.368349126626
1	3372	420.052020681658	0.00404587025
1	3378	422.034043725296	0.493457311041
1	3380	422.349712591599	1.037172060207
1	3386	423.217661417602	0.341412668139
1	3388	423.29637680405	0.397642220618
1	3392	424.006133110215	0.049256602764
1	3398	424.436030506859	0.112084591242
1	3402	424.489118118798	0.149601736456
1	3404	424.590194269565	0.123609930793
1	3408	426.31307792993	0.310449271046
1	3422	427.129871481688	0.633874282733
1	3424	427.342021347637	0.355009448848
1	3426	427.361190114475	0.69567400169
1	3430	427.708901223551	0.111715160805
1	3432	428.32210378586	1.351537521973
1	3434	428.677417426723	1.679819212006
1	3436	428.782681785365	2.34353360062
1	3440	430.98032646292	0.269424316185
1	3446	431.955761260621	0.545189332676
1	3450	432.133460174394	0.103952780832
1	3456	433.142337700794	0.602529064905
1	3458	433.896797231552	1.285082918267
1	3464	434.341186570097	2.796129377981
1	3466	434.423184559719	0.137006434771
1	3468	434.528970384486	0.579876374271
1	3472	435.386171086204	0.055106017417
1	3478	438.241737827349	0.17251333286
1	3480	438.358253220707	0.219767805163
1	3484	438.487515859535	0.030214584364
1	3488	438.906230952974	0.413668495507
1	3492	440.048154079402	0.115719731268
1	3496	441.846864987129	0.239298086142
1	3500	442.378999793934	0.136039833258
1	3512	443.144458660921	0.018005792331
1	3514	443.205633955619	0.147259373715
1	3520	443.847838363959	0.157879919688
1	3526	444.367949055741	0.86842368865
1	3530	444.492077301623	0.130950916935
1	3532	444.581099556415	0.20768709884
1	3540	445.422172639928	0.76759896987
1	3544	445.582722350014	2.823456455494
1	3546	445.610122622727	3.151776705512
1	3548	445.733620929904	0.528122282578
1	3550	445.739205757206	3.134088638318
1	3552	445.744646067601	0.750812623302
1	3554	446.715256291248	2.532602724702
1	3556	446.979724164898	1.451737598728
1	3560	447.386549159227	0.118346882875
1	3566	448.229481326516	0.694267379802
1	3568	448.335470180803	0.235135814625
1	3574	448.550228916573	0.14879040337
1	3576	449.176832838647	0.663423845221
1	3584	450.341611850852	0.50230754472
1	3586	450.38009644852	0.147073353257
1	3592	450.868337997264	0.963602223243
1	3598	451.049936276222	0.004568034617
1	3600	451.369387808397	0.326681665993
1	3604	451.45386365044	0.034786071074
1	3606	451.478945079341	0.837641318542
1	3608	451.499915486882	0.728399191339
1	3614	453.658595963037	1.346911324878
1	3618	454.080343089842	0.065962702376
1	3620	454.092612640115	0.60490005942
1	3626	455.489968873246	0.963501096279
1	3628	455.501321252757	0.974521257678
1	3632	456.029647263206	0.082046790205
1	3644	457.072300474774	0.202991265602
1	3648	457.643229020642	0.716268399541
1	3650	457.974309749345	0.893645053164
1	3652	458.382373773888	1.580818478536
1	3654	458.906815959353	2.79612508759
1	3660	459.129946619218	0.20294506243
1	3668	459.75633147846	0.111686415313
1	3672	462.226010307643	2.505396815192
1	3676	462.670829862186	1.239447996652
1	3684	464.14874491285	0.97804833668
1	3686	464.264686287086	1.343575587606
1	3696	465.169004570314	0.618322483565
1	3698	465.73144197714	0.898033669426
1	3700	465.757059384368	9.543533952624
1	3702	466.62226466399	7.588142646299
1	3706	466.66441006094	2.199646651585
1	3710	466.817440410567	7.517759633318
1	3712	467.116018199574	0.476342620255
1	3714	467.122901276832	4.704436066138
1	3718	468.649303920023	1.245361072188
1	3720	469.031168987307	2.33867327021
1	3722	469.08131253237	4.311978517605
1	3726	469.250761747858	0.140362268682
1	3730	469.989566770469	0.658894401213
1	3732	470.113213846551	7.214030082907
1	3738	471.359713748633	0.704445417451
1	3742	472.403576550349	0.611874973862
1	3750	473.241409528961	0.340804590966
1	3754	473.519964682261	0.265459070093
1	3758	473.610622569635	1.075951151397
1	3760	473.830995359458	0.896211243989
1	3762	473.924618177974	3.18005032526
1	3764	474.101734146792	0.558874057076
1	3768	474.743705723181	0.071499621376
1	3772	475.14039847237	0.232910132461
1	3776	475.541848360098	0.121958397728
1	3782	476.344648016514	0.295310051568
1	3784	476.358965239881	0.280615559354
1	3798	480.164259431326	1.673860124188
1	3802	480.44618325651	0.046848335623
1	3804	480.535989061344	1.643459505296
1	3810	480.934590237523	2.743054287814
1	3812	481.115118871754	3.124906404392
1	3814	482.880580913429	2.34054312536
1	3816	483.57492882576	5.268016957563
1	3820	483.739564995702	0.054795916622
1	3832	484.759641173984	0.476221118706
1	3834	484.831444652379	0.170216423624
1	3836	484.991898792203	0.707445354003
1	3838	485.888768655046	1.49342339218
1	3842	486.356291958753	0.131879407974
1	3844	486.474990673069	2.629136410578
1	3850	487.025391727733	0.237962467066
1	3852	487.185374543898	6.606412653012
1	3854	487.391808434175	0.739490223269
1	3860	487.485223898927	0.045789891757
1	3862	487.684465939605	0.209348127126
1	3864	488.302965077035	8.455810276014
1	3870	489.183227711841	0.274506863008
1	3872	489.341573880855	0.307840889238
1	3878	489.736095684166	0.072747656833
1	3880	489.865640367107	0.256333493415
1	3890	490.673136002412	0.494736905233
1	3898	491.260369967545	1.34408147483
1	3900	491.329822717061	0.085011221955
1	3902	491.434665504474	1.040953654247
1	3908	491.909239352638	0.161884746116
1	3912	493.330901540527	0.621716647769
1	3914	493.483142371721	1.579315838347
1	3918	495.139521220258	0.873434246573
1	3924	495.170313820167	0.024892886891
1	3928	495.726486655958	5.672657006364
1	3930	495.794317311982	4.787818960786
1	3932	495.84496562306	4.826025231045
1	3934	496.067017641136	0.9242613154
1	3936	496.42914177785	0.781184926425
1	3940	496.965582497015	0.175291076112
1	3944	497.920130145068	0.013742002863
1	3954	498.883175182665	0.180534906659
1	3960	499.646279684782	0.142186640046
1	3962	499.842953102852	1.426248209348
1	3964	499.90903652266	0.263249552837
1	3968	500.340831739727	0.354839843635
1	3972	500.95268618911	0.486911803761
1	3974	501.430731387011	3.460539938292
1	3976	502.506499142378	4.545438743405
1	3984	503.46291154641	0.534218053715
1	3986	503.521175545677	0.745586836615
1	3988	504.038710788325	1.509900298585
1	3992	504.506455224858	0.130941746386
1	3996	505.650791670106	0.638320382827
1	4004	507.249444701343	0.939199361047
1	4006	507.338197908569	0.48163907029
1	4010	508.095403841953	0.963841321626
1	4014	508.230106754129	0.113804332702
1	4016	508.649503641133	0.762219241882
1	4022	509.782178316677	1.052303266462
1	4028	510.919376726521	0.677455664894
1	4032	511.12808223587	0.129371870167
1	4036	511.557923567803	2.4228718e-05
1	4038	511.749069443558	1.311836381285
1	4044	512.235521551211	0.446982480677
1	4046	512.580065717814	0.380524076935
1	4048	512.715216348579	3.10796195351
1	4052	512.759042302822	0.007861742871
1	4058	513.727360443635	0.147573021902
1	4062	513.927040998545	0.167980284509
1	4064	514.803691258166	1.301370994277
1	4070	515.97164559502	0.78733377607
1	4076	516.395017518381	0.747977621301
1	4082	517.513295526942	0.59428510706
1	4084	517.554822594826	1.033789059441
1	4088	517.958252919934	0.194934188345
1	4090	517.975073601423	1.665057759615
1	4092	517.987907129635	1.85523950057
1	4098	519.422055068519	0.003767762624
1	4100	519.442996743358	0.872264614528
1	4106	520.575518562975	0.279226166039
1	4108	520.600648575774	0.358365951847
1	4120	522.067457957071	0.913548377407
1	4124	523.273471759185	2.039255375545
1	4126	523.562471226653	2.501617712585
1	4132	524.758297160908	0.296401447528
1	4134	524.808801693123	2.803806850578
1	4136	525.000400309953	3.0242101928
1	4138	526.11430455747	1.652754738865
1	4142	527.040340600553	0.120760139123
1	4150	527.739517782067	0.334171598984
1	4152	527.754820544156	0.399217282134
1	4154	527.837048467677	0.777234187516
1	4156	528.427083286586	6.002779092005
1	4162	528.566949059348	0.0599262376
1	4166	528.743991009006	0.29228656526
1	4168	528.745857289429	0.176869300859
1	4172	529.394633921379	0.221252488448
1	4180	530.09961884018	0.436492366636
1	4188	530.360008819329	0.176295938755
1	4190	530.490365432156	0.229432549195
1	4192	530.738757616709	0.510194731098
1	4198	531.345668034484	0.065586922041
1	4200	531.435401015463	0.675014247547
1	4206	532.103151811087	0.35286002974
1	4210	532.440077058278	2.513185795666
1	4212	532.727119174205	0.590036377936
1	4214	532.838953836215	0.882537367883
1	4226	535.449948362934	1.186027745622
1	4228	535.651378262724	1.54793259913
1	4234	537.456492389087	2.417185932568
1	4236	537.821328190383	2.376850666606
1	4238	537.835266609031	2.067654275312
1	4240	537.885907961262	8.204666356285
1	4246	538.973501486409	0.957588320656
1	4250	539.505830341479	1.219670479714
1	4252	539.629490961971	0.582659417685
1	4258	539.803382601387	0.086297443365
1	4262	540.11359922242	0.246382024723
1	4264	540.390875219052	0.752371772211
1	4266	540.731835321197	3.408472583638
1	4270	542.769996000688	0.429884955896
1	4274	544.682193107469	0.791016775589
1	4276	545.094670779758	10.860344261329
1	4280	545.337127043009	0.11325140994
1	4284	545.59766176505	0.151347482827
1	4292	547.472739239669	0.933130526902
1	4294	547.487298075623	0.157735088461
1	4296	547.893566072535	0.845059716325
1	4300	548.646898609544	0.041210187276
1	4304	549.461739818333	0.120934798592
1	4308	549.767860377468	0.078371737575
1	4312	550.847908906672	0.387090015249
1	4316	551.21710584182	0.067078619446
1	4322	552.439298792587	0.321578183863
1	4324	552.757677700174	0.818759895718
1	4330	553.180909620157	0.256469558376
1	4334	553.191217141129	0.008636032298
1	4342	553.861377827131	0.053783543154
1	4350	555.4909620081	2.437220311449
1	4354	555.651509193298	1.671134040964
1	4356	555.67247015282	1.577381239718
1	4360	555.845021556365	1.674668982785
1	4364	556.098968111033	0.314047561717
1	4368	556.344344317927	0.165165950251
1	4370	557.090474219746	1.104367064789
1	4372	557.273059665356	1.721627934226
1	4374	557.466061339175	4.128212406508
1	4380	558.1207151932	0.47462097662
1	4382	558.127886566951	0.46925186559
1	4386	558.560041718181	5.1682237481
1	4388	558.62616353654	0.078508482869
1	4398	562.381528926782	0.110141210956
1	4400	562.848023706125	1.846167045379
1	4402	562.987430550743	2.852994930725
1	4406	563.387699328086	0.054367799904
1	4410	564.071780432017	0.452671227101
1	4412	564.182889629662	1.858691952336
1	4416	564.591032557019	0.285356447321
1	4420	565.81128805385	0.116394048343
1	4426	566.697028499491	0.46537463693
1	4428	567.28343293687	1.103244231455
1	4434	567.354159851417	0.022092433828
1	4440	568.068456597749	0.337982097171
1	4444	568.174179422044	0.099807475069
1	4446	568.656474004023	0.673724539421
1	4448	568.723171025809	1.412878928873
1	4452	569.507723291891	0.570635332562
1	4456	570.639681091934	0.629470740328
1	4460	572.029140925613	0.319703390856
1	4464	572.758697630308	0.303993198435
1	4468	575.211720511761	0.179206990859
1	4476	575.541023125799	0.03155239321
1	4478	575.708506415183	0.172940432713
1	4480	576.524127548252	0.995738584766
1	4484	577.696113664815	0.092016476529
1	4488	578.692485876731	0.22125159574
1	4492	579.899507678698	0.422812761661
1	4506	582.001844408465	0.326566757773
1	4508	582.07275448349	0.919893700458
1	4516	582.932293102177	0.438491728907
1	4524	583.563563377469	0.584742926641
1	4526	583.839650805378	0.728641485964
1	4530	583.948124049195	0.46392867374
1	4532	584.074724659398	1.623474126164
1	4534	584.354752517688	0.495471098519
1	4536	584.474146855892	2.980824519782
1	4538	584.561595446139	3.431532134392
1	4540	584.86558411996	3.769190143139
1	4542	584.876564759029	3.579062223492
1	4552	586.367110168165	1.192573231491
1	4558	586.97493596657	0.891963587927
1	4562	587.229799083139	0.262909135285
1	4570	587.659210002487	0.599801767241
1	4572	587.665166504692	0.10447553672
1	4574	587.805495900719	2.586992291392
1	4580	588.521295159625	0.380458605452
1	4584	589.08510066317	0.763569717675
1	4586	589.275286224067	0.73381305916
1	4590	589.619997859657	4.129253364018
1	4592	589.65130239881	3.204335041746
1	4598	590.058318830193	0.185632129835
1	4600	590.099424231596	0.72678987316
1	4606	590.985532069163	0.466777979905
1	4616	592.811253834547	1.335410939422
1	4620	593.310942673005	0.31353753145
1	4626	594.179979694504	1.97532740025
1	4630	595.437399527929	1.396000880462
1	4632	595.567686010865	2.199117957149
1	4636	596.391639339432	0.608370346548
1	4640	596.823128557718	6.241880985928
1	4644	597.589559687569	0.596448286475
1	4648	598.290211832894	0.648231460245
1	4650	598.305164424593	6.884995458461
1	4652	598.849463765109	6.475567440406
1	4654	598.913249722111	3.876757634338
1	4660	599.7948471714	0.005492637993
1	4664	599.932423270034	0.099313153335
1	4668	600.234979232316	0.074500500757
1	4672	600.333048245196	0.012263184952
1	4676	600.557998011977	1.474525929477
1	4678	600.783726071612	13.222676494692
1	4680	601.018865583516	4.447397522798
1	4682	601.321893035368	11.489944838192
1	4686	601.684487657555	0.310653221821
1	4690	602.004084013526	0.312199355745
1	4692	602.173244459855	1.832453288489
1	4698	602.485896350911	19.632159714753
1	4700	602.639208913056	15.345548201405
1	4704	602.839551121281	0.025657917004
1	4708	603.059047085488	0.153107043869
1	4710	603.194050177548	0.983579578358
1	4716	605.089073484856	1.349443922384
1	4720	605.476239621594	0.576996479073
1	4722	605.860647413575	3.596880904289
1	4724	606.01053118573	0.597350393328
1	4728	606.202752172027	0.067887691955
1	4732	608.669106945685	0.421609014855
1	4736	609.503377144604	0.164441023373
1	4742	610.288182708563	0.22501284772
1	4752	611.045264832098	0.79395444453
1	4756	612.902352092754	1.966011368606
1	4776	614.084348489221	0.308158297785
1	4778	614.532266438913	0.675419438894
1	4780	614.676896218781	0.642880073621
1	4782	615.090276876676	1.566371370925
1	4784	615.214346219915	2.196887203202
1	4786	615.266428694174	1.755279687781
1	4792	615.869993137673	0.024783337588
1	4798	616.395476221846	0.05676631747
1	4800	616.428952725426	5.837788454444
1	4802	616.51484250972	0.819915215688
1	4804	616.576606059207	2.654280380742
1	4806	617.039272755783	6.560472617471
1	4808	618.185878194707	4.75257623602
1	4810	618.206184935007	6.479162187684
1	4812	618.301133430702	4.930811214652
1	4814	618.344102761126	2.123165721716
1	4816	618.36249092875	7.760034313431
1	4828	621.349861725328	0.117782670566
1	4830	621.921173717627	0.866540291299
1	4832	622.47655102602	1.722457969028
1	4834	622.683840405123	1.857711900815
1	4840	623.170488179369	0.305408906764
1	4846	624.00792805042	0.065660175906
1	4848	624.053053313657	1.154306302901
1	4860	625.56671397854	0.287376457986
1	4862	625.81396712756	1.35632507623
1	4866	626.770701178424	2.137479912797
1	4868	626.883859833612	2.6889961003
1	4874	627.66656850556	0.484234638968
1	4876	627.935659274896	0.600506570941
1	4878	628.12266924938	7.10624634688
1	4880	628.179150589938	3.205905683501
1	4884	628.831685617431	0.166111058719
1	4890	629.052629990828	0.134125057165
1	4892	629.096550613471	0.055013551343
1	4896	629.326512863864	0.100298947828
1	4898	629.820355514321	6.299879938697
1	4900	630.344092555177	4.529678944804
1	4904	630.449796384042	0.031150646383
1	4908	631.218621706869	0.32236086969
1	4912	632.026398926241	0.343828761932
[...]
28	10328	1330.560891321031	1
28	10351	1333.092782781932	0
28	10472	1347.885858740273	1
28	10473	1347.996768177099	0
28	11170	1432.628585737201	1
28	11173	1433.228789722297	0
28	11216	1440.729817979291	1
28	11217	1441.75660408868	0
28	11256	1447.266637275929	1
28	11257	1447.350715305564	0
28	11274	1448.535413262109	1
28	11277	1448.76105511978	0
28	11564	1488.419516742457	1
28	11565	1488.550247497868	0
28	11722	1503.755426292759	1
28	11723	1503.866987340812	0
28	11730	1504.736456728197	1
28	11732	1504.749171810287	2
28	11735	1504.910407319353	1
28	11737	1505.237935089428	0
28	11952	1534.647315133556	1
28	11953	1534.761530476105	0
28	12194	1559.491540820773	1
28	12195	1560.022453465637	0
28	12198	1560.068905541272	1
28	12199	1560.423729699338	0
28	12398	1587.706070624928	1
28	12399	1588.097686007533	0
28	12766	1630.534530009631	1
28	12768	1630.730755097339	2
28	12769	1630.733343151005	1
28	12771	1631.995652214626	0
28	13094	1672.259963640009	1
28	13095	1672.603703890356	0
28	13122	1675.723140462896	1
28	13125	1676.298658085792	0
28	14044	1777.722391889491	1
28	14047	1778.409122384648	0
28	14112	1784.696157147047	1
28	14117	1785.281576536155	0
28	14308	1808.074974059691	1
28	14309	1808.282148649882	0
28	14314	1808.313462764487	1
28	14315	1809.430654562134	0
28	14586	1843.712614015648	1
28	14589	1844.163052304065	0
28	14880	1882.886074426582	1
28	14882	1882.890172559766	2
28	14883	1882.941139916838	1
28	14886	1882.943339871329	2
28	14887	1882.951462372746	1
28	14895	1883.677259235716	0
28	15386	1939.557111647221	1
28	15387	1939.600981575606	0
28	15500	1954.188823387213	1
28	15501	1954.421814127727	0
28	15508	1955.138842262805	1
28	15509	1955.248942947	0
28	15546	1960.625831463151	1
28	15549	1961.519549408886	0
28	15760	1987.992479098453	1
28	15765	1988.193257526438	0
28	15768	1988.250356506129	1
28	15781	1989.755902240945	0
28	15790	1990.940850357575	1
28	15791	1991.074444894677	0
28	16036	2017.0844349544	1
28	16039	2017.322411391355	0
28	16104	2023.410884866954	1
28	16107	2023.720609215016	0
28	16212	2032.689779408903	1
28	16213	2032.699188553849	0
28	16310	2044.75795096307	1
28	16311	2045.030017236723	0
28	16394	2053.271109205863	1
28	16395	2053.353536399207	0
28	16490	2062.918150704642	1
28	16491	2062.923413879666	0
28	16682	2093.316634006413	1
28	16684	2093.321640746962	2
28	16685	2093.324511209585	1
28	16687	2093.414488195546	0
28	17304	2171.378010946512	1
28	17311	2172.88135878008	0
28	18092	2273.955192710032	1
28	18093	2274.028621920054	0
28	18146	2280.391011709257	1
28	18151	2280.772220659209	0
28	18484	2321.514124737975	1
28	18492	2322.832212343109	2
28	18499	2323.234680146885	1
28	18503	2323.480497749404	0
28	18528	2326.092820881683	1
28	18529	2326.342769533063	0
28	18886	2369.37685007943	1
28	18887	2369.934256040867	0
28	18928	2373.413993260995	1
28	18929	2373.42587993304	0
28	18932	2374.158352352279	1
28	18933	2374.303631284614	0
28	19138	2405.17395882645	1
28	19140	2405.351451205997	2
28	19147	2406.344743016543	1
28	19149	2406.930610825231	0
28	19432	2439.149316494713	1
28	19437	2439.551481989248	0
28	19460	2444.384776747734	1
28	19463	2444.49154312735	0
28	19466	2445.281614636601	1
28	19470	2446.168191728754	2
28	19475	2446.455565835094	1
28	19477	2446.711526011769	0
28	19718	2482.489947463589	1
28	19719	2482.700518165271	0
28	19864	2498.564305541693	1
28	19866	2498.920179600545	2
28	19869	2499.034371704738	1
28	19873	2499.45258366421	0
28	19914	2503.842795341859	1
28	19917	2503.937451309409	0
28	20008	2514.490169452061	1
28	20009	2515.090179198127	0
28	20530	2584.885398551327	1
28	20535	2586.652437147469	0
28	21276	2669.04508770462	1
28	21279	2669.737591514401	0
28	21356	2677.199769394534	1
28	21361	2677.853718327088	0
28	21364	2678.109118216218	1
28	21367	2678.555093346734	0
28	21568	2700.548742354402	1
28	21577	2701.021495929904	0
28	22104	2757.338046956707	1
28	22105	2757.39616665559	0
28	22234	2771.131172337181	1
28	22235	2771.313935325616	0
28	22328	2780.860242754723	1
28	22330	2780.965858346755	2
28	22331	2781.705267170063	1
28	22334	2782.006799212666	2
28	22335	2782.280904197871	1
28	22339	2782.439000262	0
28	22342	2782.444497450792	1
28	22343	2782.575591611671	0
28	22600	2810.686487288642	1
28	22605	2811.195616018796	0
28	22904	2846.583650179503	1
28	22909	2847.671528089104	0
28	23050	2866.319348775779	1
28	23051	2866.959307975606	0
28	23414	2917.470272691959	1
28	23419	2918.540789867802	0
28	23516	2926.890714109678	1
28	23517	2926.895825402921	0
28	23520	2926.972890374379	1
28	23521	2926.998930195073	0
28	23524	2927.47012614997	1
28	23527	2927.609182982916	0
28	23594	2933.202497958863	1
28	23599	2934.074332460448	0
28	23602	2934.329052282245	1
28	23603	2934.390013000525	0
28	23646	2938.915512505842	1
28	23655	2941.03576663552	0
28	23880	2967.395492763466	1
28	23885	2967.887999830039	0
28	24038	2981.925771239926	1
28	24043	2982.293692709296	0
28	24236	3007.711631253089	1
28	24237	3007.791000792301	0
28	24382	3034.67977048652	1
28	24385	3035.004059808553	0
28	24392	3035.45110814446	1
28	24395	3035.626654463866	0
28	24438	3039.696991876374	1
28	24445	3040.294842417751	0
28	24460	3043.451455553032	1
28	24461	3043.489875386732	0
28	24464	3043.627384569503	1
28	24466	3043.751049522933	2
28	24467	3043.987673438114	1
28	24469	3044.278370053212	0
28	24994	3106.535879125633	1
28	24995	3106.696080265572	0
28	25012	3107.81712100058	1
28	25017	3108.002714251912	0
28	25074	3115.071563310469	1
28	25077	3115.347307429261	0
28	25442	3163.755619001224	1
28	25444	3164.102360412095	2
28	25449	3165.017705816232	1
28	25451	3165.207966946911	0
28	25454	3165.278846173095	1
28	25458	3165.720506422339	2
28	25461	3166.330838132545	1
28	25471	3167.300404998937	0
28	25474	3167.909987651187	1
28	25477	3168.151976407345	0
28	25536	3173.09880813019	1
28	25545	3173.749657893677	0
28	26046	3229.238390759379	1
28	26047	3229.297102026047	0
28	26050	3229.999832106044	1
28	26055	3230.21739755267	0
28	26914	3337.804842339661	1
28	26915	3338.140775630859	0
28	27904	3449.799075970859	1
28	27909	3450.491118798316	0
28	27964	3456.42959779378	1
28	27967	3457.096526685011	0
28	28128	3479.035783987259	1
28	28129	3479.598449061681	0
28	28976	3586.607904149496	1
28	28977	3586.811650168372	0
28	29038	3596.788464851261	1
28	29039	3597.773254358551	0
29	457	60.49843599538	0.391828938283
29	459	60.819456789683	0.391600799164
29	999	133.318151338839	0.357961872655
29	1107	149.185619322578	0.004487108202
29	1115	149.60128012284	0.136062666593
29	1323	175.1632576149	0.905955852982
29	1325	175.176806356997	1.524280046432
29	1757	224.335205331675	0.07438411706
29	1763	224.830156942598	0.569335727983
29	1821	229.241588006519	0.287945352757
29	2005	252.509159104282	0.558627551375
29	2011	252.928036006479	0.002192053597
29	2015	254.483493895587	1.555048376301
29	2141	270.331114846115	0.451231889422
29	2147	271.433600077106	1.059311055172
29	2227	283.655072418893	0.102572218545
29	2347	297.158082586385	0.683074133372
29	2493	312.660812549925	0.32982375133
29	2499	312.766960533035	0.184258676713
29	2503	313.135561415096	0.465774948221
29	2505	313.511168856505	0.928467000183
29	2573	322.385077479401	0.633328629775
29	2899	360.685135386942	0.484075659313
29	2927	364.023841412737	1.192147677596
29	3047	378.738418348613	1.431550484847
29	3421	427.129871481688	0.142859582899
29	3797	480.164259431326	1.271729875278
29	3801	480.44618325651	1.553653700462
29	4161	528.566949059348	0.115244615602
29	4187	530.360008819329	0.099075936368
29	4551	586.367110168165	0.284137789522
29	4779	614.676896218781	1.15299071303
29	4827	621.349861725328	0.295228299
29	4829	621.921173717627	1.167080660635
29	4955	639.150964283976	0.580758581927
29	5121	661.818021379766	0.432683808522
29	5375	694.21893796195	0.391654742066
29	5543	717.840943403578	0.00145087477
29	5603	727.591220055518	0.863253332684
29	6473	841.144356780882	0.544734717806
29	6487	842.700203670244	0.202363836118
29	6627	857.557830641956	0.761270447975
29	6629	857.734154547989	0.417256505333
29	6697	867.221058517128	1.005422200672
29	6701	867.788522416745	0.125982713492
29	6729	870.96342251019	0.131490720486
29	6923	891.737329543869	1.093572012952
29	6955	895.311423922941	0.365850167041
29	7153	918.031640786621	0.173188867636
29	7195	923.375878504561	0.956906746032
29	7209	925.032793912382	2.275286660976
29	7213	925.190558840027	2.771587081498
29	7531	971.461921494517	0.425396655719
29	7589	979.078951438484	0.103804666124
29	7883	1021.131979932735	0.792766366663
29	8117	1050.332766817247	0.054860822521
29	8129	1051.584504728593	0.162805134
29	8191	1059.088206693339	0.459380515839
29	8195	1059.179861967346	1.643089425312
29	8203	1059.539127131853	2.002354589819
29	8207	1060.18647909863	0.770300859876
29	8541	1102.291879470939	0.390193522559
29	8957	1153.698240627969	0.289626497055
29	9249	1195.284644627959	0.238128952042
29	9395	1217.449121573593	0.013077375865
29	9399	1217.760320337565	0.324276139837
29	9661	1252.076608974129	2.103573728297
29	9973	1290.730419201042	0.340337461794
29	10087	1306.105358143601	0.961015243453
29	10095	1306.863334636075	1.564605099227
29	10351	1333.092782781932	2.531891460901
29	10473	1347.996768177099	0.110909436826
29	11173	1433.228789722297	0.600203985096
29	11217	1441.75660408868	1.426122906542
29	11257	1447.350715305564	0.094864230103
29	11277	1448.76105511978	0.343915617534
29	11565	1488.550247497868	0.958189264361
29	11723	1503.866987340812	0.111561048053
29	11735	1504.910407319353	0.173950591156
29	11737	1505.237935089428	0.488763279141
29	11953	1534.761530476105	0.114215342549
29	12195	1560.022453465637	0.530912644864
29	12199	1560.423729699338	0.354824158066
29	12399	1588.097686007533	0.391615382605
29	12769	1630.733343151005	1.024505165589
29	12771	1631.995652214626	1.264897117287
29	13095	1672.603703890356	0.343776478361
29	13125	1676.298658085792	0.685866517698
29	14047	1778.409122384648	0.686730495157
29	14117	1785.281576536155	0.931614330625
29	14309	1808.282148649882	0.207174590191
29	14315	1809.430654562134	1.355680502443
29	14589	1844.163052304065	0.450438288417
29	14883	1882.941139916838	0.055065490256
29	14887	1882.951462372746	0.210811023232
29	14895	1883.677259235716	0.733919364387
29	15387	1939.600981575606	0.545189239563
29	15501	1954.421814127727	0.232990740514
29	15509	1955.248942947	0.387776371854
29	15549	1961.519549408886	0.893717945735
29	15765	1988.193257526438	0.200778427985
29	15781	1989.755902240945	1.505545734816
29	15791	1991.074444894677	2.824088388548
29	16039	2017.322411391355	0.432799206542
29	16107	2023.720609215016	0.863699599141
29	16213	2032.699188553849	0.009409144946
29	16311	2045.030017236723	0.679513000558
29	16395	2053.353536399207	0.289649087468
29	16491	2062.923413879666	0.005263175024
29	16685	2093.324511209585	0.007877203172
29	16687	2093.414488195546	0.092847448584
29	17311	2172.88135878008	1.50538636445
29	18093	2274.028621920054	0.073429210022
29	18151	2280.772220659209	1.450294422648
29	18499	2323.234680146885	1.72055540891
29	18503	2323.480497749404	0.648285406295
29	18529	2326.342769533063	0.24994865138
29	18887	2369.934256040867	0.557405961437
29	18929	2373.42587993304	0.011886672045
29	18933	2374.303631284614	0.145278932335
29	19147	2406.344743016543	1.397323412495
29	19149	2406.930610825231	1.579159619234
29	19437	2439.551481989248	0.402165494535
29	19463	2444.49154312735	0.137333972344
29	19475	2446.455565835094	1.173951198493
29	19477	2446.711526011769	2.357316856763
29	19719	2482.700518165271	0.210570701682
29	19869	2499.034371704738	0.470066163045
29	19873	2499.45258366421	0.532404063665
29	19917	2503.937451309409	0.09465596755
29	20009	2515.090179198127	0.600009746066
29	20535	2586.652437147469	1.767038596142
29	21279	2669.737591514401	0.692503809781
29	21361	2677.853718327088	0.867482365854
29	21367	2678.555093346734	1.5688573855
29	21577	2701.021495929904	1.280160925349
29	22105	2757.39616665559	0.058119698883
29	22235	2771.313935325616	0.182762988435
29	22331	2781.705267170063	0.84502441534
29	22335	2782.280904197871	1.315045851116
29	22339	2782.439000262	1.578757507277
29	22343	2782.575591611671	0.131094160879
29	22605	2811.195616018796	0.509128730154
29	22909	2847.671528089104	1.087877909601
29	23051	2866.959307975606	0.639959199827
29	23419	2918.540789867802	1.070517175843
29	23517	2926.895825402921	0.591826405226
29	23521	2926.998930195073	0.694931197378
29	23527	2927.609182982916	1.305183985221
29	23599	2934.074332460448	0.871834501585
29	23603	2934.390013000525	0.06096071828
29	23655	2941.03576663552	2.120254129678
29	23885	2967.887999830039	0.492507066573
29	24043	2982.293692709296	0.949347305006
29	24237	3007.791000792301	0.173928754519
29	24385	3035.004059808553	0.697951531243
29	24395	3035.626654463866	1.320546186556
29	24445	3040.294842417751	0.597850541377
29	24461	3043.489875386732	0.0384198337
29	24467	3043.987673438114	0.536217885082
29	24469	3044.278370053212	0.527320530279
29	24995	3106.696080265572	0.160201139939
29	25017	3108.002714251912	0.273206434448
29	25077	3115.347307429261	0.602093581436
29	25449	3165.017705816232	1.262086815008
29	25451	3165.207966946911	1.105606534816
29	25461	3166.330838132545	2.22847772045
29	25471	3167.300404998937	1.579898576598
29	25477	3168.151976407345	2.431469985006
29	25545	3173.749657893677	1.0412994539
29	26047	3229.297102026047	0.432228323487
29	26055	3230.21739755267	1.35252385011
29	26915	3338.140775630859	1.087420045781
29	27909	3450.491118798316	0.692042827457
29	27967	3457.096526685011	0.666928891231
29	28129	3479.598449061681	0.567277789698
29	28977	3586.811650168372	0.203746018876
29	29039	3597.773254358551	0.98478950729
30	1186	159.049980280745	1
30	1187	159.109475406585	0
30	1502	192.638865175759	1
30	1503	193.190323374214	0
30	2138	269.936469622889	1
30	2139	269.974773325359	0
30	2632	330.681309354692	1
30	2637	331.803474208709	0
30	3086	383.359844168213	1
30	3088	383.548701020982	2
30	3089	383.810436047563	1
30	3091	384.238818066113	0
30	3642	456.926960621101	1
30	3643	457.072300474774	0
30	3830	484.661228228755	1
30	3831	484.759641173984	0
30	4740	610.251310387568	1
30	4741	610.288182708563	0
30	4750	610.936340724148	1
30	4751	611.045264832098	0
30	4770	613.856847000019	1
30	4774	614.03401614516	2
30	4775	614.084348489221	1
30	4777	614.532266438913	0
30	5114	660.780974576254	1
30	5119	661.610495983296	0
30	5264	682.590716847408	1
30	5265	682.628998217083	0
30	5930	766.10581060276	1
30	5933	766.422066024486	0
30	6568	852.310394409315	1
30	6569	852.388401787745	0
30	7188	922.656140333859	1
30	7191	922.813632345999	0
30	7202	924.116642963899	1
30	7203	924.939685309615	0
30	7206	924.975327608058	1
30	7207	924.999007039174	0
30	7556	974.399305609822	1
30	7557	974.56586399898	0
30	7598	980.897258957409	1
30	7599	980.906577021033	0
30	8188	1058.733282204619	1
30	8189	1058.833014415584	0
30	8932	1150.278912329238	1
30	8933	1150.491149993205	0
30	9618	1246.212113478155	1
30	9619	1246.393172090322	0
30	10330	1330.971321844186	1
30	10334	1331.457820318014	2
30	10337	1332.263200782431	1
30	10341	1332.381430318926	0
30	10442	1344.771098964228	1
30	10443	1344.981141550864	0
30	10948	1400.991098379028	1
30	10951	1401.115782630646	0
30	11400	1465.11843302978	1
30	11401	1465.180086228132	0
30	11988	1537.769944374851	1
30	11989	1537.852866427455	0
30	12348	1582.062509999329	1
30	12349	1582.320691764634	0
30	12374	1584.416982245471	1
30	12375	1584.458963500682	0
30	13946	1766.13710483092	1
30	13947	1766.184136921061	0
30	14440	1826.427706966488	1
30	14441	1826.460803244004	0
30	14534	1838.728795011089	1
30	14535	1838.735772910843	0
30	15694	1979.220328383802	1
30	15697	1980.082758321117	0
30	16408	2053.673915576159	1
30	16413	2054.621187795291	0
30	16440	2056.749133955812	1
30	16445	2057.296112754231	0
30	16728	2100.295956986737	1
30	16735	2102.024970694027	0
30	16738	2102.111450235464	1
30	16739	2102.535716158422	0
30	17306	2171.627744176836	1
30	17307	2171.71265692465	0
30	17524	2199.51745843627	1
30	17525	2199.660047558278	0
30	17530	2200.200078255607	1
30	17533	2200.745371891943	0
30	19142	2405.423684640932	1
30	19145	2406.304818528991	0
30	19528	2455.501177081409	1
30	19529	2455.648316137673	0
30	20528	2584.883619051653	1
30	20531	2585.526163943414	0
30	21358	2677.586108253649	1
30	21359	2677.676688318884	0
30	21574	2700.778675253291	1
30	21575	2700.849958063749	0
30	21688	2710.546335922815	1
30	21689	2710.626882094315	0
30	21704	2712.147035786398	1
30	21705	2712.178335622548	0
30	21788	2721.213459628817	1
30	21789	2721.499239542447	0
30	23588	2932.849269361458	1
30	23592	2933.013525498042	2
30	23595	2933.698845014239	1
30	23597	2933.837195652614	0
30	24440	3040.020494267248	1
30	24441	3040.134472160425	0
30	25504	3170.491772620872	1
30	25507	3171.064222297674	0
30	25538	3173.14470928575	1
30	25543	3173.635528345224	0
30	26052	3230.006242323947	1
30	26053	3230.071766792967	0
30	26166	3241.978740059554	1
30	26167	3242.040743542689	0
30	26280	3259.248626035521	1
30	26281	3260.146985923574	0
30	26340	3267.3574719182	1
30	26343	3267.899716273515	0
30	26346	3267.985817808877	1
30	26347	3268.202610407739	0
30	26470	3281.749383398078	1
30	26473	3282.230655520672	0
30	26738	3315.468603721396	1
30	26739	3316.240009264393	0
30	26992	3345.68245927695	1
30	26995	3346.31593203979	0
30	26998	3346.34001804195	1
30	27003	3346.59037429284	0
30	27248	3375.117523174091	1
30	27249	3375.142846735017	0
31	1187	159.109475406585	0.05949512584
31	1503	193.190323374214	0.551458198455
31	2139	269.974773325359	0.03830370247
31	2637	331.803474208709	1.122164854017
31	3089	383.810436047563	0.45059187935
31	3091	384.238818066113	0.690117045131
31	3643	457.072300474774	0.145339853673
31	3831	484.759641173984	0.098412945229
31	4741	610.288182708563	0.036872320995
31	4751	611.045264832098	0.10892410795
31	4775	614.084348489221	0.227501489202
31	4777	614.532266438913	0.498250293753
31	5119	661.610495983296	0.829521407042
31	5265	682.628998217083	0.038281369675
31	5933	766.422066024486	0.316255421726
31	6569	852.388401787745	0.07800737843
31	7191	922.813632345999	0.15749201214
31	7203	924.939685309615	0.823042345716
31	7207	924.999007039174	0.023679431116
31	7557	974.56586399898	0.166558389158
31	7599	980.906577021033	0.009318063624
31	8189	1058.833014415584	0.099732210965
31	8933	1150.491149993205	0.212237663967
31	9619	1246.393172090322	0.181058612167
31	10337	1332.263200782431	1.291878938245
31	10341	1332.381430318926	0.923610000912
31	10443	1344.981141550864	0.210042586636
31	10951	1401.115782630646	0.124684251618
31	11401	1465.180086228132	0.061653198352
31	11989	1537.852866427455	0.082922052604
31	12349	1582.320691764634	0.258181765305
31	12375	1584.458963500682	0.041981255211
31	13947	1766.184136921061	0.047032090141
31	14441	1826.460803244004	0.033096277516
31	14535	1838.735772910843	0.006977899754
31	15697	1980.082758321117	0.862429937315
31	16413	2054.621187795291	0.947272219132
31	16445	2057.296112754231	0.546978798419
31	16735	2102.024970694027	1.72901370729
31	16739	2102.535716158422	0.424265922958
31	17307	2171.71265692465	0.084912747814
31	17525	2199.660047558278	0.142589122008
31	17533	2200.745371891943	0.545293636336
31	19145	2406.304818528991	0.881133888059
31	19529	2455.648316137673	0.147139056264
31	20531	2585.526163943414	0.642544891761
31	21359	2677.676688318884	0.090580065235
31	21575	2700.849958063749	0.071282810458
31	21689	2710.626882094315	0.0805461715
31	21705	2712.178335622548	0.03129983615
31	21789	2721.499239542447	0.28577991363
31	23595	2933.698845014239	0.849575652781
31	23597	2933.837195652614	0.823670154572
31	24441	3040.134472160425	0.113977893177
31	25507	3171.064222297674	0.572449676802
31	25543	3173.635528345224	0.490819059474
31	26053	3230.071766792967	0.06552446902
31	26167	3242.040743542689	0.062003483135
31	26281	3260.146985923574	0.898359888053
31	26343	3267.899716273515	0.542244355315
31	26347	3268.202610407739	0.216792598862
31	26473	3282.230655520672	0.481272122594
31	26739	3316.240009264393	0.771405542997
31	26995	3346.31593203979	0.63347276284
31	27003	3346.59037429284	0.25035625089
31	27249	3375.142846735017	0.025323560926

